<?xml version="1.0" encoding="UTF-8"?>

<!-- generated on 2022-10-05 09:12:57 by Eclipse SUMO netedit Version 1.14.1
<configuration xmlns:xsi="http://www.w3.org/2001/XMLSchema-instance" xsi:noNamespaceSchemaLocation="http://sumo.dlr.de/xsd/netconvertConfiguration.xsd">

    <input>
        <sumo-net-file value="C:\Users\Administrator\Desktop\大挑\map3.net.xml"/>
    </input>

    <output>
        <output-file value="C:\Users\Administrator\Desktop\大挑\map3.net.xml"/>
    </output>

    <processing>
        <geometry.min-radius.fix.railways value="false"/>
        <geometry.max-grade.fix value="false"/>
        <offset.disable-normalization value="true"/>
        <lefthand value="false"/>
    </processing>

    <junctions>
        <no-turnarounds value="true"/>
        <junctions.corner-detail value="5"/>
        <junctions.limit-turn-speed value="5.5"/>
        <rectangular-lane-cut value="false"/>
    </junctions>

    <pedestrian>
        <walkingareas value="false"/>
    </pedestrian>

</configuration>
-->

<net version="1.9" junctionCornerDetail="5" limitTurnSpeed="5.50" xmlns:xsi="http://www.w3.org/2001/XMLSchema-instance" xsi:noNamespaceSchemaLocation="http://sumo.dlr.de/xsd/net_file.xsd">

    <location netOffset="-658692.12,-3548970.67" convBoundary="0.00,972.10,12309.07,9642.86" origBoundary="118.681486,32.053000,118.816253,32.157625" projParameter="+proj=utm +zone=50 +ellps=WGS84 +datum=WGS84 +units=m +no_defs"/>

    <type id="highway.bridleway" priority="1" numLanes="1" speed="2.78" allow="pedestrian" oneway="1" width="2.00"/>
    <type id="highway.bus_guideway" priority="1" numLanes="1" speed="27.78" allow="bus" oneway="1"/>
    <type id="highway.cycleway" priority="1" numLanes="1" speed="5.56" allow="bicycle" oneway="0" width="1.00"/>
    <type id="highway.footway" priority="1" numLanes="1" speed="2.78" allow="pedestrian" oneway="1" width="2.00"/>
    <type id="highway.ford" priority="1" numLanes="1" speed="2.78" allow="army" oneway="0"/>
    <type id="highway.living_street" priority="2" numLanes="1" speed="2.78" disallow="tram rail_urban rail rail_electric rail_fast ship" oneway="0"/>
    <type id="highway.motorway" priority="14" numLanes="2" speed="39.44" allow="private emergency authority army vip passenger hov taxi bus coach delivery truck trailer motorcycle evehicle custom1 custom2" oneway="1"/>
    <type id="highway.motorway_link" priority="9" numLanes="1" speed="22.22" allow="private emergency authority army vip passenger hov taxi bus coach delivery truck trailer motorcycle evehicle custom1 custom2" oneway="1"/>
    <type id="highway.path" priority="1" numLanes="1" speed="5.56" allow="pedestrian bicycle" oneway="0" width="2.00"/>
    <type id="highway.pedestrian" priority="1" numLanes="1" speed="2.78" allow="pedestrian" oneway="1" width="2.00"/>
    <type id="highway.primary" priority="12" numLanes="2" speed="27.78" disallow="tram rail_urban rail rail_electric rail_fast ship" oneway="0"/>
    <type id="highway.primary_link" priority="7" numLanes="1" speed="22.22" disallow="tram rail_urban rail rail_electric rail_fast ship" oneway="0"/>
    <type id="highway.raceway" priority="15" numLanes="2" speed="83.33" allow="vip" oneway="0"/>
    <type id="highway.residential" priority="3" numLanes="1" speed="13.89" disallow="tram rail_urban rail rail_electric rail_fast ship" oneway="0"/>
    <type id="highway.secondary" priority="11" numLanes="1" speed="27.78" disallow="tram rail_urban rail rail_electric rail_fast ship" oneway="0"/>
    <type id="highway.secondary_link" priority="6" numLanes="1" speed="22.22" disallow="tram rail_urban rail rail_electric rail_fast ship" oneway="0"/>
    <type id="highway.service" priority="1" numLanes="1" speed="5.56" allow="pedestrian delivery bicycle" oneway="0"/>
    <type id="highway.stairs" priority="1" numLanes="1" speed="1.39" allow="pedestrian" oneway="1" width="2.00"/>
    <type id="highway.step" priority="1" numLanes="1" speed="1.39" allow="pedestrian" oneway="1" width="2.00"/>
    <type id="highway.steps" priority="1" numLanes="1" speed="1.39" allow="pedestrian" oneway="1" width="2.00"/>
    <type id="highway.tertiary" priority="10" numLanes="1" speed="22.22" disallow="tram rail_urban rail rail_electric rail_fast ship" oneway="0"/>
    <type id="highway.tertiary_link" priority="5" numLanes="1" speed="22.22" disallow="tram rail_urban rail rail_electric rail_fast ship" oneway="0"/>
    <type id="highway.track" priority="1" numLanes="1" speed="5.56" allow="pedestrian motorcycle moped bicycle" oneway="0"/>
    <type id="highway.trunk" priority="13" numLanes="2" speed="27.78" disallow="pedestrian bicycle tram rail_urban rail rail_electric rail_fast ship" oneway="0"/>
    <type id="highway.trunk_link" priority="8" numLanes="1" speed="22.22" disallow="pedestrian bicycle tram rail_urban rail rail_electric rail_fast ship" oneway="0"/>
    <type id="highway.unclassified" priority="4" numLanes="1" speed="13.89" disallow="tram rail_urban rail rail_electric rail_fast ship" oneway="0"/>
    <type id="highway.unsurfaced" priority="1" numLanes="1" speed="8.33" disallow="tram rail_urban rail rail_electric rail_fast ship" oneway="0"/>
    <type id="railway.highspeed" priority="21" numLanes="1" speed="69.44" allow="rail_fast" oneway="1"/>
    <type id="railway.light_rail" priority="19" numLanes="1" speed="27.78" allow="rail_urban" oneway="1"/>
    <type id="railway.preserved" priority="16" numLanes="1" speed="27.78" allow="rail" oneway="1"/>
    <type id="railway.rail" priority="20" numLanes="1" speed="44.44" allow="rail" oneway="1"/>
    <type id="railway.subway" priority="18" numLanes="1" speed="27.78" allow="rail_urban" oneway="1"/>
    <type id="railway.tram" priority="17" numLanes="1" speed="13.89" allow="tram" oneway="1"/>

    <edge id=":10016235269_0" function="internal">
        <lane id=":10016235269_0_0" index="0" disallow="tram rail_urban rail rail_electric rail_fast ship" speed="22.22" length="19.64" shape="1562.32,7732.48 1574.54,7747.86"/>
    </edge>
    <edge id=":10016235269_1" function="internal">
        <lane id=":10016235269_1_0" index="0" disallow="pedestrian bicycle tram rail_urban rail rail_electric rail_fast ship" speed="22.22" length="19.63" shape="1559.84,7734.87 1563.20,7737.82 1567.33,7741.23 1571.39,7744.70 1574.54,7747.86"/>
    </edge>
    <edge id=":10038665774_0" function="internal">
        <lane id=":10038665774_0_0" index="0" disallow="tram rail_urban rail rail_electric rail_fast ship" speed="20.64" length="11.10" shape="1937.77,8507.89 1936.21,8505.22 1934.55,8503.52 1932.58,8502.05 1930.11,8500.05"/>
    </edge>
    <edge id=":10038665774_1" function="internal">
        <lane id=":10038665774_1_0" index="0" disallow="tram rail_urban rail rail_electric rail_fast ship" speed="22.22" length="11.08" shape="1937.77,8507.89 1933.12,8497.83"/>
    </edge>
    <edge id=":10038665775_0" function="internal">
        <lane id=":10038665775_0_0" index="0" disallow="tram rail_urban rail rail_electric rail_fast ship" speed="22.22" length="9.66" shape="1909.12,8486.23 1908.18,8483.52 1907.57,8481.65 1906.87,8479.82 1905.67,8477.22"/>
    </edge>
    <edge id=":10038665775_1" function="internal">
        <lane id=":10038665775_1_0" index="0" disallow="tram rail_urban rail rail_electric rail_fast ship" speed="20.60" length="9.68" shape="1912.30,8484.09 1910.06,8482.27 1908.43,8481.07 1907.08,8479.65 1905.67,8477.22"/>
    </edge>
    <edge id=":10043899808_0" function="internal">
        <lane id=":10043899808_0_0" index="0" disallow="tram rail_urban rail rail_electric rail_fast ship" speed="22.22" length="11.11" shape="4831.19,8661.86 4830.04,8650.80"/>
    </edge>
    <edge id=":10043899808_1" function="internal">
        <lane id=":10043899808_1_0" index="0" disallow="tram rail_urban rail rail_electric rail_fast ship" speed="6.35" length="8.41" shape="4831.19,8661.86 4831.22,8659.41 4831.93,8657.57 4833.30,8656.34 4835.35,8655.72"/>
    </edge>
    <edge id=":10043899808_2" function="internal">
        <lane id=":10043899808_2_0" index="0" disallow="tram rail_urban rail rail_electric rail_fast ship" speed="6.55" length="9.01" shape="4825.09,8657.00 4827.46,8656.38 4829.07,8655.13 4829.93,8653.28 4830.04,8650.80"/>
    </edge>
    <edge id=":10043899808_3" function="internal">
        <lane id=":10043899808_3_0" index="0" disallow="tram rail_urban rail rail_electric rail_fast ship" speed="27.78" length="10.35" shape="4825.09,8657.00 4835.35,8655.72"/>
    </edge>
    <edge id=":10043929017_0" function="internal">
        <lane id=":10043929017_0_0" index="0" disallow="tram rail_urban rail rail_electric rail_fast ship" speed="6.56" length="8.96" shape="4832.99,8677.17 4832.34,8674.80 4831.09,8673.19 4829.25,8672.32 4826.81,8672.21"/>
    </edge>
    <edge id=":10043929017_1" function="internal">
        <lane id=":10043929017_1_0" index="0" disallow="tram rail_urban rail rail_electric rail_fast ship" speed="22.22" length="11.01" shape="4832.99,8677.17 4831.67,8666.23"/>
    </edge>
    <edge id=":10043929017_2" function="internal">
        <lane id=":10043929017_2_0" index="0" disallow="tram rail_urban rail rail_electric rail_fast ship" speed="27.78" length="10.17" shape="4836.94,8671.25 4826.81,8672.21"/>
    </edge>
    <edge id=":10043929017_3" function="internal">
        <lane id=":10043929017_3_0" index="0" disallow="tram rail_urban rail rail_electric rail_fast ship" speed="6.29" length="8.25" shape="4836.94,8671.25 4834.86,8671.10 4833.29,8670.22 4832.23,8668.59 4831.67,8666.23"/>
    </edge>
    <edge id=":10046832448_0" function="internal">
        <lane id=":10046832448_0_0" index="0" disallow="tram rail_urban rail rail_electric rail_fast ship" speed="5.83" length="7.18" shape="2936.77,6134.96 2934.67,6133.61 2932.91,6133.01 2931.49,6133.15 2930.41,6134.03"/>
    </edge>
    <edge id=":10046832448_1" function="internal">
        <lane id=":10046832448_1_0" index="0" disallow="tram rail_urban rail rail_electric rail_fast ship" speed="13.89" length="10.67" shape="2936.77,6134.96 2928.44,6128.29"/>
    </edge>
    <edge id=":10046832448_2" function="internal">
        <lane id=":10046832448_2_0" index="0" disallow="tram rail_urban rail rail_electric rail_fast ship" speed="3.65" length="1.44" shape="2936.77,6134.96 2936.35,6133.58"/>
    </edge>
    <edge id=":10046832448_9" function="internal">
        <lane id=":10046832448_9_0" index="0" disallow="tram rail_urban rail rail_electric rail_fast ship" speed="3.65" length="3.23" shape="2936.35,6133.58 2936.55,6132.71 2937.36,6132.35 2938.80,6132.49"/>
    </edge>
    <edge id=":10046832448_3" function="internal">
        <lane id=":10046832448_3_0" index="0" disallow="tram rail_urban rail rail_electric rail_fast ship" speed="6.70" length="9.49" shape="2937.51,6124.23 2936.32,6126.51 2936.13,6128.64 2936.96,6130.64 2938.80,6132.49"/>
    </edge>
    <edge id=":10046832448_4" function="internal">
        <lane id=":10046832448_4_0" index="0" disallow="tram rail_urban rail rail_electric rail_fast ship" speed="27.78" length="12.10" shape="2937.51,6124.23 2930.41,6134.03"/>
    </edge>
    <edge id=":10046832448_5" function="internal">
        <lane id=":10046832448_5_0" index="0" disallow="tram rail_urban rail rail_electric rail_fast ship" speed="7.03" length="11.20" shape="2937.51,6124.23 2934.99,6127.19 2932.63,6128.85 2930.45,6129.22 2928.44,6128.29"/>
    </edge>
    <edge id=":10046832448_6" function="internal">
        <lane id=":10046832448_6_0" index="0" disallow="tram rail_urban rail rail_electric rail_fast ship" speed="13.89" length="10.68" shape="2930.46,6125.81 2938.80,6132.49"/>
    </edge>
    <edge id=":10046832448_7" function="internal">
        <lane id=":10046832448_7_0" index="0" disallow="tram rail_urban rail rail_electric rail_fast ship" speed="6.70" length="2.49" shape="2930.46,6125.81 2931.85,6127.46 2931.93,6127.79"/>
    </edge>
    <edge id=":10046832448_8" function="internal">
        <lane id=":10046832448_8_0" index="0" disallow="tram rail_urban rail rail_electric rail_fast ship" speed="3.65" length="1.44" shape="2930.46,6125.81 2930.89,6127.19"/>
    </edge>
    <edge id=":10046832448_10" function="internal">
        <lane id=":10046832448_10_0" index="0" disallow="tram rail_urban rail rail_electric rail_fast ship" speed="6.70" length="6.71" shape="2931.93,6127.79 2932.30,6129.38 2931.82,6131.57 2930.41,6134.03"/>
    </edge>
    <edge id=":10046832448_11" function="internal">
        <lane id=":10046832448_11_0" index="0" disallow="tram rail_urban rail rail_electric rail_fast ship" speed="3.65" length="3.23" shape="2930.89,6127.19 2930.69,6128.07 2929.87,6128.43 2928.44,6128.29"/>
    </edge>
    <edge id=":1038194334_0" function="internal">
        <lane id=":1038194334_0_0" index="0" disallow="tram rail_urban rail rail_electric rail_fast ship" speed="22.22" length="0.30" shape="9182.72,2912.75 9182.72,2913.06"/>
        <lane id=":1038194334_0_1" index="1" disallow="tram rail_urban rail rail_electric rail_fast ship" speed="22.22" length="0.30" shape="9179.52,2912.75 9179.52,2913.04"/>
    </edge>
    <edge id=":1040287732_0" function="internal">
        <lane id=":1040287732_0_0" index="0" disallow="tram rail_urban rail rail_electric rail_fast ship" speed="27.78" length="0.29" shape="9210.54,3400.30 9210.60,3400.62"/>
        <lane id=":1040287732_0_1" index="1" disallow="tram rail_urban rail rail_electric rail_fast ship" speed="27.78" length="0.29" shape="9207.39,3400.90 9207.45,3401.18"/>
        <lane id=":1040287732_0_2" index="2" disallow="tram rail_urban rail rail_electric rail_fast ship" speed="27.78" length="0.29" shape="9204.25,3401.50 9204.30,3401.75"/>
    </edge>
    <edge id=":1040287736_0" function="internal">
        <lane id=":1040287736_0_0" index="0" disallow="tram rail_urban rail rail_electric rail_fast ship" speed="6.22" length="9.05" shape="9259.48,3740.19 9260.18,3742.62 9261.48,3744.13 9263.39,3744.71 9265.89,3744.37"/>
        <lane id=":1040287736_0_1" index="1" disallow="tram rail_urban rail rail_electric rail_fast ship" speed="7.06" length="12.00" shape="9259.48,3740.19 9260.40,3744.01 9261.92,3746.50 9264.05,3747.64 9266.77,3747.45"/>
    </edge>
    <edge id=":1040287736_2" function="internal">
        <lane id=":1040287736_2_0" index="0" disallow="tram rail_urban rail rail_electric rail_fast ship" speed="27.78" length="18.35" shape="9259.48,3740.19 9260.25,3745.68 9260.73,3749.45 9261.04,3753.23 9261.28,3758.77"/>
        <lane id=":1040287736_2_1" index="1" disallow="tram rail_urban rail rail_electric rail_fast ship" speed="27.78" length="18.35" shape="9256.31,3740.63 9257.07,3746.02 9257.54,3749.72 9257.84,3753.44 9258.08,3758.88"/>
        <lane id=":1040287736_2_2" index="2" disallow="tram rail_urban rail rail_electric rail_fast ship" speed="27.78" length="18.35" shape="9253.14,3741.06 9253.88,3746.36 9254.35,3749.99 9254.65,3753.64 9254.88,3758.99"/>
    </edge>
    <edge id=":1040287736_5" function="internal">
        <lane id=":1040287736_5_0" index="0" disallow="tram rail_urban rail rail_electric rail_fast ship" speed="27.78" length="17.38" shape="9250.00,3747.15 9254.79,3746.90 9258.06,3746.48 9261.27,3745.70 9265.89,3744.37"/>
        <lane id=":1040287736_5_1" index="1" disallow="tram rail_urban rail rail_electric rail_fast ship" speed="27.78" length="17.38" shape="9250.11,3750.35 9255.14,3750.09 9258.56,3749.65 9261.93,3748.84 9266.77,3747.45"/>
        <lane id=":1040287736_5_2" index="2" disallow="tram rail_urban rail rail_electric rail_fast ship" speed="27.78" length="17.38" shape="9250.23,3753.54 9255.48,3753.28 9259.07,3752.83 9262.59,3751.98 9267.65,3750.52"/>
        <lane id=":1040287736_5_3" index="3" disallow="tram rail_urban rail rail_electric rail_fast ship" speed="27.78" length="17.38" shape="9250.34,3756.74 9255.83,3756.47 9259.57,3756.00 9263.24,3755.12 9268.53,3753.60"/>
    </edge>
    <edge id=":1040287736_9" function="internal">
        <lane id=":1040287736_9_0" index="0" disallow="tram rail_urban rail rail_electric rail_fast ship" speed="6.35" length="8.57" shape="9250.34,3756.74 9253.69,3756.77 9256.10,3757.14 9257.56,3757.84 9258.08,3758.88"/>
        <lane id=":1040287736_9_1" index="1" disallow="tram rail_urban rail rail_electric rail_fast ship" speed="5.29" length="5.63" shape="9250.34,3756.74 9252.29,3756.82 9253.70,3757.22 9254.56,3757.94 9254.88,3758.99"/>
    </edge>
    <edge id=":1040287750_0" function="internal">
        <lane id=":1040287750_0_0" index="0" disallow="tram rail_urban rail rail_electric rail_fast ship" speed="6.68" length="9.41" shape="10289.13,3623.14 10291.83,3623.18 10293.89,3622.44 10295.31,3620.92 10296.08,3618.62"/>
    </edge>
    <edge id=":1040287750_1" function="internal">
        <lane id=":1040287750_1_0" index="0" disallow="tram rail_urban rail rail_electric rail_fast ship" speed="27.78" length="18.37" shape="10289.13,3623.14 10294.73,3623.97 10298.54,3624.67 10302.30,3625.63 10307.73,3627.24"/>
        <lane id=":1040287750_1_1" index="1" disallow="tram rail_urban rail rail_electric rail_fast ship" speed="27.78" length="18.37" shape="10288.67,3626.31 10294.13,3627.11 10297.85,3627.80 10301.52,3628.74 10306.81,3630.30"/>
        <lane id=":1040287750_1_2" index="2" disallow="tram rail_urban rail rail_electric rail_fast ship" speed="27.78" length="18.37" shape="10288.22,3629.47 10293.54,3630.26 10297.16,3630.93 10300.73,3631.84 10305.89,3633.37"/>
        <lane id=":1040287750_1_3" index="3" disallow="tram rail_urban rail rail_electric rail_fast ship" speed="27.78" length="18.37" shape="10287.76,3632.64 10292.94,3633.41 10296.47,3634.06 10299.95,3634.95 10304.98,3636.43"/>
    </edge>
    <edge id=":1040287750_5" function="internal">
        <lane id=":1040287750_5_0" index="0" disallow="tram rail_urban rail rail_electric rail_fast ship" speed="27.78" length="16.69" shape="10293.23,3633.93 10294.71,3629.44 10296.38,3626.57 10297.98,3623.68 10299.24,3619.15"/>
        <lane id=":1040287750_5_1" index="1" disallow="tram rail_urban rail rail_electric rail_fast ship" speed="27.78" length="16.69" shape="10293.23,3633.93 10295.23,3629.39 10297.97,3626.84 10300.63,3624.27 10302.39,3619.68"/>
    </edge>
    <edge id=":1040287750_7" function="internal">
        <lane id=":1040287750_7_0" index="0" disallow="tram rail_urban rail rail_electric rail_fast ship" speed="6.84" length="10.64" shape="10296.35,3634.62 10297.27,3633.10 10299.16,3632.38 10302.04,3632.47 10305.89,3633.37"/>
        <lane id=":1040287750_7_1" index="1" disallow="tram rail_urban rail rail_electric rail_fast ship" speed="5.23" length="5.76" shape="10299.47,3635.31 10300.29,3635.04 10301.95,3635.40 10303.74,3636.00 10304.98,3636.43"/>
    </edge>
    <edge id=":1040287752_0" function="internal">
        <lane id=":1040287752_0_0" index="0" disallow="tram rail_urban rail rail_electric rail_fast ship" speed="27.78" length="0.39" shape="10301.46,3573.61 10301.48,3573.34"/>
        <lane id=":1040287752_0_1" index="1" disallow="tram rail_urban rail rail_electric rail_fast ship" speed="27.78" length="0.39" shape="10304.66,3573.81 10304.67,3573.41"/>
        <lane id=":1040287752_0_2" index="2" disallow="tram rail_urban rail rail_electric rail_fast ship" speed="27.78" length="0.39" shape="10307.85,3574.00 10307.87,3573.49"/>
    </edge>
    <edge id=":1040520480_0" function="internal">
        <lane id=":1040520480_0_0" index="0" disallow="pedestrian bicycle tram rail_urban rail rail_electric rail_fast ship" speed="20.84" length="23.83" shape="4011.95,6974.45 4014.63,6977.98 4017.42,6983.03 4021.07,6988.47 4026.38,6993.15"/>
    </edge>
    <edge id=":1040520480_1" function="internal">
        <lane id=":1040520480_1_0" index="0" disallow="tram rail_urban rail rail_electric rail_fast ship" speed="3.73" length="1.33" shape="4011.95,6974.45 4011.88,6975.78"/>
    </edge>
    <edge id=":1040520480_7" function="internal">
        <lane id=":1040520480_7_0" index="0" disallow="tram rail_urban rail rail_electric rail_fast ship" speed="3.73" length="3.64" shape="4011.88,6975.78 4011.87,6975.98 4011.35,6976.78 4010.40,6976.84 4009.02,6976.18"/>
    </edge>
    <edge id=":1040520480_2" function="internal">
        <lane id=":1040520480_2_0" index="0" disallow="pedestrian bicycle tram rail_urban rail rail_electric rail_fast ship" speed="10.67" length="55.76" shape="4005.79,6979.14 4023.15,6991.04 4029.47,6994.52 4024.76,6989.56 4009.02,6976.18"/>
    </edge>
    <edge id=":1040520480_3" function="internal">
        <lane id=":1040520480_3_0" index="0" disallow="pedestrian bicycle tram rail_urban rail rail_electric rail_fast ship" speed="27.78" length="25.00" shape="4005.79,6979.14 4026.38,6993.15"/>
        <lane id=":1040520480_3_1" index="1" disallow="pedestrian bicycle tram rail_urban rail rail_electric rail_fast ship" speed="27.78" length="25.00" shape="4003.95,6981.76 4024.70,6995.88"/>
    </edge>
    <edge id=":1040520480_5" function="internal">
        <lane id=":1040520480_5_0" index="0" disallow="tram rail_urban rail rail_electric rail_fast ship" speed="9.72" length="22.85" shape="4013.38,6995.50 4016.30,6991.04 4016.54,6986.33 4014.12,6981.38 4009.02,6976.18"/>
    </edge>
    <edge id=":1040520480_6" function="internal">
        <lane id=":1040520480_6_0" index="0" disallow="pedestrian bicycle tram rail_urban rail rail_electric rail_fast ship" speed="7.45" length="10.07" shape="4015.66,6997.74 4017.93,6995.89 4020.19,6994.96 4022.45,6994.96 4024.70,6995.88"/>
    </edge>
    <edge id=":1040520500_0" function="internal">
        <lane id=":1040520500_0_0" index="0" disallow="bicycle tram rail_urban rail rail_electric rail_fast ship" speed="9.21" length="7.63" shape="4029.85,7228.42 4031.95,7227.53 4033.47,7226.85 4034.60,7225.81 4035.54,7223.88"/>
    </edge>
    <edge id=":1040520500_1" function="internal">
        <lane id=":1040520500_1_0" index="0" disallow="pedestrian bicycle tram rail_urban rail rail_electric rail_fast ship" speed="27.78" length="7.77" shape="4033.01,7231.23 4035.54,7223.88"/>
        <lane id=":1040520500_1_1" index="1" disallow="pedestrian bicycle tram rail_urban rail rail_electric rail_fast ship" speed="27.78" length="7.77" shape="4036.03,7232.27 4038.56,7224.94"/>
    </edge>
    <edge id=":1040520504_0" function="internal">
        <lane id=":1040520504_0_0" index="0" disallow="pedestrian bicycle tram rail_urban rail rail_electric rail_fast ship" speed="27.78" length="11.28" shape="4187.85,7090.82 4177.19,7087.23"/>
        <lane id=":1040520504_0_1" index="1" disallow="pedestrian bicycle tram rail_urban rail rail_electric rail_fast ship" speed="27.78" length="11.28" shape="4188.91,7087.80 4178.17,7084.19"/>
    </edge>
    <edge id=":1040520504_2" function="internal">
        <lane id=":1040520504_2_0" index="0" disallow="pedestrian bicycle tram rail_urban rail rail_electric rail_fast ship" speed="6.68" length="9.24" shape="4188.91,7087.80 4186.67,7086.64 4185.30,7085.04 4184.80,7083.00 4185.17,7080.52"/>
    </edge>
    <edge id=":1040520504_3" function="internal">
        <lane id=":1040520504_3_0" index="0" disallow="bicycle tram rail_urban rail rail_electric rail_fast ship" speed="6.45" length="9.03" shape="4180.70,7094.28 4181.18,7091.85 4180.75,7089.86 4179.43,7088.32 4177.19,7087.23"/>
    </edge>
    <edge id=":1040520504_4" function="internal">
        <lane id=":1040520504_4_0" index="0" disallow="pedestrian bicycle tram rail_urban rail rail_electric rail_fast ship" speed="22.22" length="14.47" shape="4180.70,7094.28 4185.17,7080.52"/>
    </edge>
    <edge id=":1040520585_0" function="internal">
        <lane id=":1040520585_0_0" index="0" disallow="tram rail_urban rail rail_electric rail_fast ship" speed="27.78" length="0.10" shape="5465.08,8117.80 5465.08,8117.80"/>
    </edge>
    <edge id=":1040520589_0" function="internal">
        <lane id=":1040520589_0_0" index="0" disallow="bicycle tram rail_urban rail rail_electric rail_fast ship" speed="22.22" length="0.49" shape="4123.28,7248.49 4123.39,7248.40 4123.46,7248.33 4123.52,7248.26 4123.61,7248.14"/>
    </edge>
    <edge id=":1040535852_0" function="internal">
        <lane id=":1040535852_0_0" index="0" disallow="pedestrian bicycle tram rail_urban rail rail_electric rail_fast ship" speed="25.00" length="17.60" shape="3320.00,8305.79 3323.69,8301.52 3325.86,8297.66 3327.23,8294.07 3328.54,8290.63"/>
    </edge>
    <edge id=":1040535852_1" function="internal">
        <lane id=":1040535852_1_0" index="0" disallow="pedestrian bicycle tram rail_urban rail rail_electric rail_fast ship" speed="27.78" length="17.67" shape="3320.00,8305.79 3332.31,8293.19"/>
        <lane id=":1040535852_1_1" index="1" disallow="pedestrian bicycle tram rail_urban rail rail_electric rail_fast ship" speed="27.78" length="17.67" shape="3322.22,8308.10 3334.60,8295.42"/>
    </edge>
    <edge id=":1060699334_0" function="internal">
        <lane id=":1060699334_0_0" index="0" disallow="tram rail_urban rail rail_electric rail_fast ship" speed="27.78" length="20.92" shape="6843.96,4084.54 6837.96,4083.70 6833.63,4083.44 6829.28,4083.30 6823.23,4082.80"/>
        <lane id=":1060699334_0_1" index="1" disallow="tram rail_urban rail rail_electric rail_fast ship" speed="27.78" length="20.92" shape="6844.51,4081.39 6838.48,4080.54 6834.08,4080.27 6829.66,4080.12 6823.58,4079.62"/>
    </edge>
    <edge id=":1060699334_2" function="internal">
        <lane id=":1060699334_2_0" index="0" disallow="pedestrian bicycle tram rail_urban rail rail_electric rail_fast ship" speed="25.00" length="20.93" shape="6844.51,4081.39 6837.88,4079.99 6832.54,4078.48 6828.15,4077.03 6824.37,4075.78"/>
    </edge>
    <edge id=":1060699387_0" function="internal">
        <lane id=":1060699387_0_0" index="0" disallow="pedestrian bicycle tram rail_urban rail rail_electric rail_fast ship" speed="27.78" length="0.45" shape="6494.89,3696.28 6495.12,3696.28 6495.27,3696.28 6495.42,3696.29 6495.64,3696.31"/>
        <lane id=":1060699387_0_1" index="1" disallow="pedestrian bicycle tram rail_urban rail rail_electric rail_fast ship" speed="27.78" length="0.45" shape="6494.92,3699.48 6495.06,3699.48 6495.15,3699.48 6495.24,3699.49 6495.38,3699.50"/>
        <lane id=":1060699387_0_2" index="2" disallow="pedestrian bicycle tram rail_urban rail rail_electric rail_fast ship" speed="27.78" length="0.45" shape="6494.96,3702.68 6495.00,3702.68 6495.03,3702.68 6495.06,3702.68 6495.11,3702.69"/>
    </edge>
    <edge id=":1061169244_0" function="internal">
        <lane id=":1061169244_0_0" index="0" disallow="tram rail_urban rail rail_electric rail_fast ship" speed="3.65" length="4.67" shape="12159.80,9324.91 12161.08,9325.56 12161.58,9326.31 12161.28,9327.15 12160.18,9328.09"/>
    </edge>
    <edge id=":1067142264_0" function="internal">
        <lane id=":1067142264_0_0" index="0" disallow="tram rail_urban rail rail_electric rail_fast ship" speed="27.78" length="9.51" shape="5558.40,3707.34 5556.47,3705.55 5555.90,3703.45 5555.31,3701.41 5553.31,3699.78"/>
    </edge>
    <edge id=":1067142264_1" function="internal">
        <lane id=":1067142264_1_0" index="0" disallow="pedestrian bicycle tram rail_urban rail rail_electric rail_fast ship" speed="27.78" length="7.97" shape="5558.40,3707.34 5551.68,3703.66"/>
        <lane id=":1067142264_1_1" index="1" disallow="pedestrian bicycle tram rail_urban rail rail_electric rail_fast ship" speed="27.78" length="7.97" shape="5559.82,3704.48 5552.93,3700.68"/>
        <lane id=":1067142264_1_2" index="2" disallow="pedestrian bicycle tram rail_urban rail rail_electric rail_fast ship" speed="27.78" length="7.97" shape="5561.25,3701.61 5554.18,3697.70"/>
        <lane id=":1067142264_1_3" index="3" disallow="pedestrian bicycle tram rail_urban rail rail_electric rail_fast ship" speed="27.78" length="7.97" shape="5562.67,3698.74 5555.44,3694.71"/>
    </edge>
    <edge id=":1083062874_0" function="internal">
        <lane id=":1083062874_0_0" index="0" disallow="tram rail_urban rail rail_electric rail_fast ship" speed="6.76" length="8.95" shape="5549.78,8568.17 5550.51,8570.45 5551.80,8572.04 5553.66,8572.94 5556.09,8573.15"/>
    </edge>
    <edge id=":1083062874_1" function="internal">
        <lane id=":1083062874_1_0" index="0" disallow="tram rail_urban rail rail_electric rail_fast ship" speed="27.78" length="10.76" shape="5549.78,8568.17 5551.79,8578.74"/>
    </edge>
    <edge id=":1083062874_2" function="internal">
        <lane id=":1083062874_2_0" index="0" disallow="tram rail_urban rail rail_electric rail_fast ship" speed="27.78" length="10.76" shape="5545.35,8573.79 5556.09,8573.15"/>
    </edge>
    <edge id=":1083062874_3" function="internal">
        <lane id=":1083062874_3_0" index="0" disallow="tram rail_urban rail rail_electric rail_fast ship" speed="6.84" length="9.00" shape="5545.35,8573.79 5547.74,8573.96 5549.62,8574.84 5550.96,8576.44 5551.79,8578.74"/>
    </edge>
    <edge id=":1083062939_0" function="internal">
        <lane id=":1083062939_0_0" index="0" disallow="tram rail_urban rail rail_electric rail_fast ship" speed="27.78" length="10.89" shape="2905.64,7799.97 2905.89,7810.86"/>
    </edge>
    <edge id=":1083062939_1" function="internal">
        <lane id=":1083062939_1_0" index="0" disallow="tram rail_urban rail rail_electric rail_fast ship" speed="6.33" length="8.22" shape="2901.09,7805.38 2903.15,7805.77 2904.64,7806.81 2905.55,7808.51 2905.89,7810.86"/>
    </edge>
    <edge id=":1083062953_0" function="internal">
        <lane id=":1083062953_0_0" index="0" disallow="tram rail_urban rail rail_electric rail_fast ship" speed="5.65" length="9.26" shape="2918.21,8267.20 2918.70,8269.96 2919.86,8271.38 2921.69,8271.48 2924.20,8270.24"/>
    </edge>
    <edge id=":1083062953_1" function="internal">
        <lane id=":1083062953_1_0" index="0" disallow="tram rail_urban rail rail_electric rail_fast ship" speed="16.42" length="10.93" shape="2918.21,8267.20 2918.33,8270.34 2918.56,8272.70 2919.23,8274.93 2920.65,8277.68"/>
    </edge>