<?xml version="1.0" encoding="UTF-8"?>

<!-- generated on 2022-10-03 14:57:37 by Eclipse SUMO netedit Version 1.14.1
<configuration xmlns:xsi="http://www.w3.org/2001/XMLSchema-instance" xsi:noNamespaceSchemaLocation="http://sumo.dlr.de/xsd/netconvertConfiguration.xsd">

    <input>
        <osm-files value="C:\Users\Administrator\Desktop\大挑\map(基本删完).osm"/>
    </input>

    <output>
        <output-file value="C:\Users\Administrator\Desktop\大挑\maptest.net.xml"/>
    </output>

    <projection>
        <proj.utm value="true"/>
    </projection>

    <processing>
        <geometry.remove value="true"/>
    </processing>

    <tls_building>
        <tls.discard-simple value="true"/>
        <tls.guess-signals value="true"/>
    </tls_building>

    <ramp_guessing>
        <ramps.guess value="true"/>
    </ramp_guessing>

    <junctions>
        <junctions.join value="true"/>
    </junctions>

</configuration>
-->

<net version="1.9" junctionCornerDetail="5" limitTurnSpeed="5.50" xmlns:xsi="http://www.w3.org/2001/XMLSchema-instance" xsi:noNamespaceSchemaLocation="http://sumo.dlr.de/xsd/net_file.xsd">

    <location netOffset="-658692.12,-3548970.67" convBoundary="0.00,0.00,12309.07,9667.71" origBoundary="118.681486,32.053000,118.816253,32.157625" projParameter="+proj=utm +zone=50 +ellps=WGS84 +datum=WGS84 +units=m +no_defs"/>

    <type id="highway.bridleway" priority="1" numLanes="1" speed="2.78" allow="pedestrian" oneway="1" width="2.00"/>
    <type id="highway.bus_guideway" priority="1" numLanes="1" speed="27.78" allow="bus" oneway="1"/>
    <type id="highway.cycleway" priority="1" numLanes="1" speed="5.56" allow="bicycle" oneway="0" width="1.00"/>
    <type id="highway.footway" priority="1" numLanes="1" speed="2.78" allow="pedestrian" oneway="1" width="2.00"/>
    <type id="highway.ford" priority="1" numLanes="1" speed="2.78" allow="army" oneway="0"/>
    <type id="highway.living_street" priority="2" numLanes="1" speed="2.78" disallow="tram rail_urban rail rail_electric rail_fast ship" oneway="0"/>
    <type id="highway.motorway" priority="14" numLanes="2" speed="39.44" allow="private emergency authority army vip passenger hov taxi bus coach delivery truck trailer motorcycle evehicle custom1 custom2" oneway="1"/>
    <type id="highway.motorway_link" priority="9" numLanes="1" speed="22.22" allow="private emergency authority army vip passenger hov taxi bus coach delivery truck trailer motorcycle evehicle custom1 custom2" oneway="1"/>
    <type id="highway.path" priority="1" numLanes="1" speed="5.56" allow="pedestrian bicycle" oneway="0" width="2.00"/>
    <type id="highway.pedestrian" priority="1" numLanes="1" speed="2.78" allow="pedestrian" oneway="1" width="2.00"/>
    <type id="highway.primary" priority="12" numLanes="2" speed="27.78" disallow="tram rail_urban rail rail_electric rail_fast ship" oneway="0"/>
    <type id="highway.primary_link" priority="7" numLanes="1" speed="22.22" disallow="tram rail_urban rail rail_electric rail_fast ship" oneway="0"/>
    <type id="highway.raceway" priority="15" numLanes="2" speed="83.33" allow="vip" oneway="0"/>
    <type id="highway.residential" priority="3" numLanes="1" speed="13.89" disallow="tram rail_urban rail rail_electric rail_fast ship" oneway="0"/>
    <type id="highway.secondary" priority="11" numLanes="1" speed="27.78" disallow="tram rail_urban rail rail_electric rail_fast ship" oneway="0"/>
    <type id="highway.secondary_link" priority="6" numLanes="1" speed="22.22" disallow="tram rail_urban rail rail_electric rail_fast ship" oneway="0"/>
    <type id="highway.service" priority="1" numLanes="1" speed="5.56" allow="pedestrian delivery bicycle" oneway="0"/>
    <type id="highway.stairs" priority="1" numLanes="1" speed="1.39" allow="pedestrian" oneway="1" width="2.00"/>
    <type id="highway.step" priority="1" numLanes="1" speed="1.39" allow="pedestrian" oneway="1" width="2.00"/>
    <type id="highway.steps" priority="1" numLanes="1" speed="1.39" allow="pedestrian" oneway="1" width="2.00"/>
    <type id="highway.tertiary" priority="10" numLanes="1" speed="22.22" disallow="tram rail_urban rail rail_electric rail_fast ship" oneway="0"/>
    <type id="highway.tertiary_link" priority="5" numLanes="1" speed="22.22" disallow="tram rail_urban rail rail_electric rail_fast ship" oneway="0"/>
    <type id="highway.track" priority="1" numLanes="1" speed="5.56" allow="pedestrian motorcycle moped bicycle" oneway="0"/>
    <type id="highway.trunk" priority="13" numLanes="2" speed="27.78" disallow="pedestrian bicycle tram rail_urban rail rail_electric rail_fast ship" oneway="0"/>
    <type id="highway.trunk_link" priority="8" numLanes="1" speed="22.22" disallow="pedestrian bicycle tram rail_urban rail rail_electric rail_fast ship" oneway="0"/>
    <type id="highway.unclassified" priority="4" numLanes="1" speed="13.89" disallow="tram rail_urban rail rail_electric rail_fast ship" oneway="0"/>
    <type id="highway.unsurfaced" priority="1" numLanes="1" speed="8.33" disallow="tram rail_urban rail rail_electric rail_fast ship" oneway="0"/>
    <type id="railway.highspeed" priority="21" numLanes="1" speed="69.44" allow="rail_fast" oneway="1"/>
    <type id="railway.light_rail" priority="19" numLanes="1" speed="27.78" allow="rail_urban" oneway="1"/>
    <type id="railway.preserved" priority="16" numLanes="1" speed="27.78" allow="rail" oneway="1"/>
    <type id="railway.rail" priority="20" numLanes="1" speed="44.44" allow="rail" oneway="1"/>
    <type id="railway.subway" priority="18" numLanes="1" speed="27.78" allow="rail_urban" oneway="1"/>
    <type id="railway.tram" priority="17" numLanes="1" speed="13.89" allow="tram" oneway="1"/>

    <edge id=":10016235269_0" function="internal">
        <lane id=":10016235269_0_0" index="0" disallow="tram rail_urban rail rail_electric rail_fast ship" speed="22.22" length="3.41" shape="1574.73,7743.24 1576.99,7745.79"/>
    </edge>
    <edge id=":10016235269_1" function="internal">
        <lane id=":10016235269_1_0" index="0" disallow="pedestrian bicycle tram rail_urban rail rail_electric rail_fast ship" speed="22.22" length="3.26" shape="1572.25,7745.55 1572.98,7746.18 1573.47,7746.63 1573.92,7747.12 1574.54,7747.85"/>
    </edge>
    <edge id=":10038665774_0" function="internal">
        <lane id=":10038665774_0_0" index="0" disallow="tram rail_urban rail rail_electric rail_fast ship" speed="16.60" length="3.52" shape="1934.84,8509.18 1934.39,8508.24 1934.03,8507.61 1933.59,8507.05 1932.87,8506.30"/>
    </edge>
    <edge id=":10038665774_1" function="internal">
        <lane id=":10038665774_1_0" index="0" disallow="tram rail_urban rail rail_electric rail_fast ship" speed="22.22" length="3.54" shape="1937.74,8507.83 1936.26,8504.62"/>
    </edge>
    <edge id=":10038665775_0" function="internal">
        <lane id=":10038665775_0_0" index="0" disallow="tram rail_urban rail rail_electric rail_fast ship" speed="22.22" length="3.48" shape="1904.32,8481.81 1902.81,8478.67"/>
    </edge>
    <edge id=":10038665775_1" function="internal">
        <lane id=":10038665775_1_0" index="0" disallow="tram rail_urban rail rail_electric rail_fast ship" speed="19.14" length="3.49" shape="1907.68,8480.12 1906.97,8479.37 1906.52,8478.81 1906.15,8478.20 1905.69,8477.28"/>
    </edge>
    <edge id=":10046832448_0" function="internal">
        <lane id=":10046832448_0_0" index="0" disallow="tram rail_urban rail rail_electric rail_fast ship" speed="5.79" length="7.04" shape="2936.77,6134.96 2934.68,6133.60 2932.94,6132.97 2931.56,6133.05 2930.53,6133.87"/>
    </edge>
    <edge id=":10046832448_1" function="internal">
        <lane id=":10046832448_1_0" index="0" disallow="tram rail_urban rail rail_electric rail_fast ship" speed="13.89" length="10.67" shape="2936.77,6134.96 2928.44,6128.30"/>
    </edge>
    <edge id=":10046832448_2" function="internal">
        <lane id=":10046832448_2_0" index="0" disallow="tram rail_urban rail rail_electric rail_fast ship" speed="3.65" length="4.68" shape="2936.77,6134.96 2936.35,6133.58 2936.55,6132.71 2937.36,6132.34 2938.80,6132.49"/>
    </edge>
    <edge id=":10046832448_3" function="internal">
        <lane id=":10046832448_3_0" index="0" disallow="tram rail_urban rail rail_electric rail_fast ship" speed="6.70" length="9.48" shape="2937.51,6124.23 2936.32,6126.51 2936.13,6128.64 2936.96,6130.64 2938.80,6132.49"/>
    </edge>
    <edge id=":10046832448_4" function="internal">
        <lane id=":10046832448_4_0" index="0" disallow="tram rail_urban rail rail_electric rail_fast ship" speed="27.78" length="11.90" shape="2937.51,6124.23 2930.53,6133.87"/>
    </edge>
    <edge id=":10046832448_5" function="internal">
        <lane id=":10046832448_5_0" index="0" disallow="tram rail_urban rail rail_electric rail_fast ship" speed="7.03" length="11.20" shape="2937.51,6124.23 2934.99,6127.19 2932.63,6128.85 2930.45,6129.22 2928.44,6128.30"/>
    </edge>
    <edge id=":10046832448_6" function="internal">
        <lane id=":10046832448_6_0" index="0" disallow="tram rail_urban rail rail_electric rail_fast ship" speed="13.89" length="10.68" shape="2930.46,6125.82 2938.80,6132.49"/>
    </edge>
    <edge id=":10046832448_7" function="internal">
        <lane id=":10046832448_7_0" index="0" disallow="tram rail_urban rail rail_electric rail_fast ship" speed="6.64" length="9.03" shape="2930.46,6125.82 2931.86,6127.45 2932.34,6129.34 2931.89,6131.48 2930.53,6133.87"/>
    </edge>
    <edge id=":10046832448_8" function="internal">
        <lane id=":10046832448_8_0" index="0" disallow="tram rail_urban rail rail_electric rail_fast ship" speed="3.65" length="4.67" shape="2930.46,6125.82 2930.89,6127.20 2930.69,6128.07 2929.88,6128.43 2928.44,6128.30"/>
    </edge>
    <edge id=":1040520480_0" function="internal">
        <lane id=":1040520480_0_0" index="0" disallow="pedestrian bicycle tram rail_urban rail rail_electric rail_fast ship" speed="20.84" length="23.84" shape="4011.94,6974.45 4014.62,6977.98 4017.41,6983.03 4021.07,6988.47 4026.38,6993.15"/>
    </edge>
    <edge id=":1040520480_1" function="internal">
        <lane id=":1040520480_1_0" index="0" disallow="tram rail_urban rail rail_electric rail_fast ship" speed="3.73" length="4.97" shape="4011.94,6974.45 4011.85,6975.98 4011.34,6976.78 4010.39,6976.84 4009.01,6976.17"/>
    </edge>
    <edge id=":1040520480_2" function="internal">
        <lane id=":1040520480_2_0" index="0" disallow="pedestrian bicycle tram rail_urban rail rail_electric rail_fast ship" speed="10.66" length="55.67" shape="4005.78,6979.14 4023.11,6991.02 4029.43,6994.49 4024.73,6989.54 4009.01,6976.17"/>
    </edge>
    <edge id=":1040520480_3" function="internal">
        <lane id=":1040520480_3_0" index="0" disallow="pedestrian bicycle tram rail_urban rail rail_electric rail_fast ship" speed="27.78" length="25.01" shape="4005.78,6979.14 4026.38,6993.15"/>
        <lane id=":1040520480_3_1" index="1" disallow="pedestrian bicycle tram rail_urban rail rail_electric rail_fast ship" speed="27.78" length="25.01" shape="4003.94,6981.76 4024.70,6995.88"/>
    </edge>
    <edge id=":1040520480_5" function="internal">
        <lane id=":1040520480_5_0" index="0" disallow="tram rail_urban rail rail_electric rail_fast ship" speed="9.72" length="22.85" shape="4013.37,6995.50 4016.29,6991.05 4016.54,6986.34 4014.11,6981.38 4009.01,6976.17"/>
    </edge>
    <edge id=":1040520480_6" function="internal">
        <lane id=":1040520480_6_0" index="0" disallow="pedestrian bicycle tram rail_urban rail rail_electric rail_fast ship" speed="7.45" length="10.07" shape="4015.66,6997.75 4017.93,6995.89 4020.19,6994.96 4022.45,6994.96 4024.70,6995.88"/>
    </edge>
    <edge id=":1040520500_0" function="internal">
        <lane id=":1040520500_0_0" index="0" disallow="bicycle tram rail_urban rail rail_electric rail_fast ship" speed="8.39" length="3.90" shape="4030.70,7224.67 4031.60,7223.96 4032.16,7223.38 4032.54,7222.68 4032.95,7221.61"/>
    </edge>
    <edge id=":1040520500_1" function="internal">
        <lane id=":1040520500_1_0" index="0" disallow="pedestrian bicycle tram rail_urban rail rail_electric rail_fast ship" speed="27.78" length="3.93" shape="4034.67,7226.40 4035.96,7222.67"/>
        <lane id=":1040520500_1_1" index="1" disallow="pedestrian bicycle tram rail_urban rail rail_electric rail_fast ship" speed="27.78" length="3.93" shape="4037.69,7227.44 4038.98,7223.74"/>
    </edge>
    <edge id=":1040535852_0" function="internal">
        <lane id=":1040535852_0_0" index="0" disallow="pedestrian bicycle tram rail_urban rail rail_electric rail_fast ship" speed="25.00" length="3.42" shape="3316.80,8304.42 3317.53,8303.71 3317.99,8303.19 3318.39,8302.62 3318.92,8301.76"/>
    </edge>
    <edge id=":1040535852_1" function="internal">
        <lane id=":1040535852_1_0" index="0" disallow="pedestrian bicycle tram rail_urban rail rail_electric rail_fast ship" speed="27.78" length="3.57" shape="3319.02,8306.72 3321.52,8304.24"/>
        <lane id=":1040535852_1_1" index="1" disallow="pedestrian bicycle tram rail_urban rail rail_electric rail_fast ship" speed="27.78" length="3.57" shape="3321.24,8309.03 3323.81,8306.48"/>
    </edge>
    <edge id=":1048570170#2-AddedOnRampNode_0" function="internal">
        <lane id=":1048570170#2-AddedOnRampNode_0_0" index="0" disallow="tram rail_urban rail rail_electric rail_fast ship" speed="27.78" length="8.00" shape="546.89,3308.95 539.70,3305.46"/>
    </edge>
    <edge id=":1060699334_0" function="internal">
        <lane id=":1060699334_0_0" index="0" disallow="tram rail_urban rail rail_electric rail_fast ship" speed="27.78" length="11.83" shape="6852.19,4089.22 6840.53,4087.56"/>
        <lane id=":1060699334_0_1" index="1" disallow="tram rail_urban rail rail_electric rail_fast ship" speed="27.78" length="11.83" shape="6852.74,4086.07 6840.98,4084.40"/>
    </edge>
    <edge id=":1060699334_2" function="internal">
        <lane id=":1060699334_2_0" index="0" disallow="pedestrian bicycle tram rail_urban rail rail_electric rail_fast ship" speed="25.00" length="14.63" shape="6853.29,4082.92 6848.68,4082.17 6845.21,4081.64 6842.18,4081.07 6838.93,4080.21"/>
    </edge>
    <edge id=":1061169244_0" function="internal">
        <lane id=":1061169244_0_0" index="0" disallow="tram rail_urban rail rail_electric rail_fast ship" speed="3.65" length="4.67" shape="12159.80,9324.91 12161.09,9325.56 12161.58,9326.31 12161.28,9327.15 12160.19,9328.09"/>
    </edge>
    <edge id=":1067142264_0" function="internal">
        <lane id=":1067142264_0_0" index="0" disallow="tram rail_urban rail rail_electric rail_fast ship" speed="27.78" length="3.15" shape="5554.98,3709.22 5552.19,3707.74"/>
    </edge>
    <edge id=":1067142264_1" function="internal">
        <lane id=":1067142264_1_0" index="0" disallow="pedestrian bicycle tram rail_urban rail rail_electric rail_fast ship" speed="27.78" length="2.75" shape="5556.40,3706.35 5553.77,3704.93"/>
        <lane id=":1067142264_1_1" index="1" disallow="pedestrian bicycle tram rail_urban rail rail_electric rail_fast ship" speed="27.78" length="2.75" shape="5557.83,3703.48 5555.34,3702.13"/>
        <lane id=":1067142264_1_2" index="2" disallow="pedestrian bicycle tram rail_urban rail rail_electric rail_fast ship" speed="27.78" length="2.75" shape="5559.25,3700.62 5556.90,3699.34"/>
        <lane id=":1067142264_1_3" index="3" disallow="pedestrian bicycle tram rail_urban rail rail_electric rail_fast ship" speed="27.78" length="2.75" shape="5560.67,3697.75 5558.46,3696.54"/>
    </edge>
    <edge id=":1082220050#0-AddedOffRampNode_0" function="internal">
        <lane id=":1082220050#0-AddedOffRampNode_0_0" index="0" disallow="tram rail_urban rail rail_electric rail_fast ship" speed="22.22" length="9.22" shape="2006.04,8675.88 2004.05,8673.88 2001.50,8673.59 1998.94,8673.27 1996.92,8671.22"/>
        <lane id=":1082220050#0-AddedOffRampNode_0_1" index="1" disallow="tram rail_urban rail rail_electric rail_fast ship" speed="22.22" length="9.22" shape="2006.04,8675.88 2004.58,8673.84 2002.94,8672.89 2001.30,8671.94 1999.84,8669.90"/>
        <lane id=":1082220050#0-AddedOffRampNode_0_2" index="2" disallow="tram rail_urban rail rail_electric rail_fast ship" speed="22.22" length="9.22" shape="2006.04,8675.88 2002.75,8668.58"/>
    </edge>
    <edge id=":1083060497_0" function="internal">
        <lane id=":1083060497_0_0" index="0" disallow="tram rail_urban rail rail_electric rail_fast ship" speed="3.65" length="4.67" shape="2499.04,5110.55 2500.48,5110.59 2501.25,5111.05 2501.34,5111.94 2500.75,5113.26"/>
    </edge>
    <edge id=":1099151496_0" function="internal">
        <lane id=":1099151496_0_0" index="0" disallow="tram rail_urban rail rail_electric rail_fast ship" speed="6.57" length="7.58" shape="11587.60,4498.41 11589.38,4497.46 11590.58,4496.15 11591.19,4494.49 11591.21,4492.47"/>
        <lane id=":1099151496_0_1" index="1" disallow="tram rail_urban rail rail_electric rail_fast ship" speed="7.42" length="9.92" shape="11587.60,4498.41 11590.74,4497.00 11592.91,4495.48 11594.13,4493.84 11594.38,4492.07"/>
    </edge>
    <edge id=":1099151496_2" function="internal">
        <lane id=":1099151496_2_0" index="0" disallow="tram rail_urban rail rail_electric rail_fast ship" speed="3.65" length="4.67" shape="11587.60,4498.41 11589.00,4498.74 11589.65,4499.35 11589.56,4500.24 11588.71,4501.41"/>
    </edge>
    <edge id=":1171580961_0" function="internal">
        <lane id=":1171580961_0_0" index="0" disallow="tram rail_urban rail rail_electric rail_fast ship" speed="22.22" length="23.73" shape="1539.10,7818.87 1533.35,7814.56 1528.61,7810.08 1524.69,7806.06 1521.40,7803.13"/>
    </edge>
    <edge id=":1171580961_1" function="internal">
        <lane id=":1171580961_1_0" index="0" disallow="tram rail_urban rail rail_electric rail_fast ship" speed="22.22" length="23.62" shape="1539.10,7818.87 1534.10,7814.89 1530.94,7810.72 1528.40,7805.95 1525.27,7800.15"/>
        <lane id=":1171580961_1_1" index="1" disallow="tram rail_urban rail rail_electric rail_fast ship" speed="22.22" length="22.17" shape="1540.82,7816.17 1535.98,7812.36 1533.17,7808.56 1530.99,7804.15 1528.02,7798.52"/>
    </edge>
    <edge id=":1171581042_0" function="internal">
        <lane id=":1171581042_0_0" index="0" disallow="tram rail_urban rail rail_electric rail_fast ship" speed="11.61" length="7.39" shape="1958.19,8585.42 1957.50,8583.41 1957.46,8581.93 1957.80,8580.39 1958.25,8578.23"/>
    </edge>
    <edge id=":1171581042_1" function="internal">
        <lane id=":1171581042_1_0" index="0" disallow="tram rail_urban rail rail_electric rail_fast ship" speed="13.16" length="4.83" shape="1961.11,8584.10 1960.45,8582.54 1960.15,8581.40 1960.08,8580.22 1960.12,8578.52"/>
        <lane id=":1171581042_1_1" index="1" disallow="tram rail_urban rail rail_electric rail_fast ship" speed="10.89" length="4.83" shape="1964.02,8582.79 1963.57,8581.73 1963.35,8580.96 1963.29,8580.17 1963.31,8579.01"/>
    </edge>
    <edge id=":1212798723_0" function="internal">
        <lane id=":1212798723_0_0" index="0" allow="pedestrian delivery bicycle" speed="5.08" length="5.02" shape="6904.09,5270.81 6902.84,5270.27 6901.71,5270.27 6900.69,5270.79 6899.79,5271.85"/>
    </edge>
    <edge id=":1212798723_1" function="internal">
        <lane id=":1212798723_1_0" index="0" disallow="tram rail_urban rail rail_electric rail_fast ship" speed="27.78" length="9.34" shape="6904.09,5270.81 6896.14,5265.85"/>
        <lane id=":1212798723_1_1" index="1" disallow="tram rail_urban rail rail_electric rail_fast ship" speed="27.78" length="9.34" shape="6905.76,5268.08 6897.86,5263.15"/>
    </edge>
    <edge id=":1212798723_3" function="internal">
        <lane id=":1212798723_3_0" index="0" allow="pedestrian delivery bicycle" speed="5.04" length="5.00" shape="6897.09,5270.13 6897.66,5268.88 6897.69,5267.75 6897.18,5266.74 6896.14,5265.85"/>
    </edge>
    <edge id=":1212798723_4" function="internal">
        <lane id=":1212798723_4_0" index="0" allow="pedestrian delivery bicycle" speed="3.65" length="4.67" shape="6897.09,5270.13 6898.41,5269.54 6899.30,5269.64 6899.76,5270.40 6899.79,5271.85"/>
    </edge>
    <edge id=":1212799306_0" function="internal">
        <lane id=":1212799306_0_0" index="0" disallow="tram rail_urban rail rail_electric rail_fast ship" speed="27.78" length="0.34" shape="8604.79,6504.71 8604.76,6504.68 8604.73,6504.65 8604.70,6504.63 8604.66,6504.60"/>
        <lane id=":1212799306_0_1" index="1" disallow="tram rail_urban rail rail_electric rail_fast ship" speed="27.78" length="0.34" shape="8606.92,6502.32 8606.80,6502.21 8606.72,6502.15 8606.64,6502.08 8606.52,6502.00"/>
    </edge>
    <edge id=":1212799306_2" function="internal">
        <lane id=":1212799306_2_0" index="0" disallow="tram rail_urban rail rail_electric rail_fast ship" speed="27.78" length="1.03" shape="8610.25,6496.74 8611.16,6497.53"/>
        <lane id=":1212799306_2_1" index="1" disallow="tram rail_urban rail rail_electric rail_fast ship" speed="27.78" length="1.03" shape="8608.39,6499.36 8609.04,6499.92"/>
    </edge>
    <edge id=":1212799317_0" function="internal">
        <lane id=":1212799317_0_0" index="0" disallow="tram rail_urban rail rail_electric rail_fast ship" speed="27.78" length="0.42" shape="7944.02,6012.59 7943.93,6012.48 7943.87,6012.40 7943.81,6012.32 7943.70,6012.22"/>
        <lane id=":1212799317_0_1" index="1" disallow="tram rail_urban rail rail_electric rail_fast ship" speed="27.78" length="0.42" shape="7946.02,6010.05 7945.95,6009.97 7945.90,6009.91 7945.85,6009.85 7945.77,6009.78"/>
    </edge>
    <edge id=":1212799317_2" function="internal">
        <lane id=":1212799317_2_0" index="0" disallow="tram rail_urban rail rail_electric rail_fast ship" speed="27.78" length="0.17" shape="7949.91,6004.90 7950.00,6004.97"/>
        <lane id=":1212799317_2_1" index="1" disallow="tram rail_urban rail rail_electric rail_fast ship" speed="27.78" length="0.17" shape="7947.84,6007.34 7948.02,6007.49"/>
    </edge>
    <edge id=":142098246-AddedOnRampNode_0" function="internal">
        <lane id=":142098246-AddedOnRampNode_0_0" index="0" disallow="tram rail_urban rail rail_electric rail_fast ship" speed="27.78" length="8.00" shape="6407.94,3070.88 6407.31,3062.91"/>
    </edge>
    <edge id=":1492431319_0" function="internal">
        <lane id=":1492431319_0_0" index="0" disallow="tram rail_urban rail rail_electric rail_fast ship" speed="13.89" length="9.48" shape="6220.84,4993.69 6212.60,4988.99"/>
    </edge>
    <edge id=":1492431319_1" function="internal">
        <lane id=":1492431319_1_0" index="0" disallow="tram rail_urban rail rail_electric rail_fast ship" speed="3.65" length="1.44" shape="6220.84,4993.69 6220.22,4992.38"/>
    </edge>
    <edge id=":1492431319_6" function="internal">
        <lane id=":1492431319_6_0" index="0" disallow="tram rail_urban rail rail_electric rail_fast ship" speed="3.65" length="3.23" shape="6220.22,4992.38 6220.29,4991.49 6221.05,4991.01 6222.49,4990.95"/>
    </edge>
    <edge id=":1492431319_2" function="internal">
        <lane id=":1492431319_2_0" index="0" disallow="tram rail_urban rail rail_electric rail_fast ship" speed="6.76" length="8.20" shape="6220.26,4983.79 6219.79,4986.05 6220.01,4988.00 6220.91,4989.63 6222.49,4990.95"/>
    </edge>
    <edge id=":1492431319_3" function="internal">
        <lane id=":1492431319_3_0" index="0" disallow="tram rail_urban rail rail_electric rail_fast ship" speed="6.68" length="10.87" shape="6220.26,4983.79 6218.78,4987.09 6217.01,4989.06 6214.95,4989.69 6212.60,4988.99"/>
    </edge>
    <edge id=":1492431319_4" function="internal">
        <lane id=":1492431319_4_0" index="0" disallow="tram rail_urban rail rail_electric rail_fast ship" speed="13.89" length="9.62" shape="6214.14,4986.19 6222.49,4990.95"/>
    </edge>
    <edge id=":1492431319_5" function="internal">
        <lane id=":1492431319_5_0" index="0" disallow="tram rail_urban rail rail_electric rail_fast ship" speed="3.65" length="1.44" shape="6214.14,4986.19 6214.81,4987.46"/>
    </edge>
    <edge id=":1492431319_7" function="internal">
        <lane id=":1492431319_7_0" index="0" disallow="tram rail_urban rail rail_electric rail_fast ship" speed="3.65" length="3.23" shape="6214.81,4987.46 6214.77,4988.36 6214.04,4988.87 6212.60,4988.99"/>
    </edge>
    <edge id=":1533667307_0" function="internal">
        <lane id=":1533667307_0_0" index="0" disallow="tram rail_urban rail rail_electric rail_fast ship" speed="6.05" length="9.83" shape="11469.14,4549.97 11466.63,4551.74 11465.54,4553.60 11465.84,4555.53 11467.56,4557.54"/>
    </edge>
    <edge id=":1533667307_1" function="internal">
        <lane id=":1533667307_1_0" index="0" disallow="tram rail_urban rail rail_electric rail_fast ship" speed="3.65" length="4.67" shape="11469.14,4549.97 11467.71,4549.83 11466.97,4549.32 11466.94,4548.43 11467.62,4547.15"/>
    </edge>
    <edge id=":1533667307_2" function="internal">
        <lane id=":1533667307_2_0" index="0" disallow="tram rail_urban rail rail_electric rail_fast ship" speed="7.50" length="8.99" shape="11459.28,4546.21 11461.24,4547.54 11463.28,4548.13 11465.41,4548.01 11467.62,4547.15"/>
    </edge>
    <edge id=":1533667307_3" function="internal">
        <lane id=":1533667307_3_0" index="0" disallow="tram rail_urban rail rail_electric rail_fast ship" speed="27.78" length="14.73" shape="11457.17,4548.62 11467.56,4557.54"/>
        <lane id=":1533667307_3_1" index="1" disallow="tram rail_urban rail rail_electric rail_fast ship" speed="5.89" length="14.73" shape="11455.06,4551.03 11460.53,4565.82"/>
    </edge>
    <edge id=":1545357307_0" function="internal">
        <lane id=":1545357307_0_0" index="0" disallow="tram rail_urban rail rail_electric rail_fast ship" speed="7.59" length="4.03" shape="9159.15,2968.17 9159.86,2967.23 9160.25,2966.49 9160.41,2965.68 9160.44,2964.50"/>
    </edge>
    <edge id=":1545357307_1" function="internal">
        <lane id=":1545357307_1_0" index="0" disallow="tram rail_urban rail rail_electric rail_fast ship" speed="27.78" length="4.13" shape="9163.64,2968.63 9163.64,2964.50"/>
        <lane id=":1545357307_1_1" index="1" disallow="tram rail_urban rail rail_electric rail_fast ship" speed="27.78" length="4.13" shape="9166.84,2968.64 9166.84,2964.50"/>
    </edge>
    <edge id=":1545357308_0" function="internal">
        <lane id=":1545357308_0_0" index="0" disallow="tram rail_urban rail rail_electric rail_fast ship" speed="8.28" length="3.91" shape="9193.16,2965.19 9193.20,2966.34 9193.34,2967.13 9193.68,2967.86 9194.32,2968.82"/>
    </edge>
    <edge id=":1545357308_1" function="internal">
        <lane id=":1545357308_1_0" index="0" disallow="tram rail_urban rail rail_electric rail_fast ship" speed="27.78" length="3.82" shape="9189.96,2965.23 9189.92,2969.11"/>
        <lane id=":1545357308_1_1" index="1" disallow="tram rail_urban rail rail_electric rail_fast ship" speed="27.78" length="3.82" shape="9186.76,2965.26 9186.72,2969.01"/>
    </edge>
    <edge id=":1545357326_0" function="internal">
        <lane id=":1545357326_0_0" index="0" disallow="tram rail_urban rail rail_electric rail_fast ship" speed="22.22" length="3.05" shape="9388.32,3050.73 9391.32,3051.26"/>
    </edge>
    <edge id=":1545357326_1" function="internal">
        <lane id=":1545357326_1_0" index="0" disallow="tram rail_urban rail rail_electric rail_fast ship" speed="22.22" length="3.06" shape="9387.77,3053.98 9390.80,3054.42"/>
    </edge>
    <edge id=":1555203823_0" function="internal">
        <lane id=":1555203823_0_0" index="0" disallow="tram rail_urban rail rail_electric rail_fast ship" speed="27.78" length="9.33" shape="5266.60,3495.62 5259.28,3489.82"/>
    </edge>
    <edge id=":1555203823_1" function="internal">
        <lane id=":1555203823_1_0" index="0" disallow="tram rail_urban rail rail_electric rail_fast ship" speed="6.11" length="7.70" shape="5266.60,3495.62 5264.60,3493.73 5263.44,3492.04 5263.12,3490.56 5263.63,3489.28"/>
    </edge>
    <edge id=":1555203823_2" function="internal">
        <lane id=":1555203823_2_0" index="0" disallow="tram rail_urban rail rail_electric rail_fast ship" speed="6.10" length="0.93" shape="5266.14,3491.26 5265.38,3491.80"/>
    </edge>
    <edge id=":1555203823_3" function="internal">
        <lane id=":1555203823_3_0" index="0" disallow="tram rail_urban rail rail_electric rail_fast ship" speed="3.65" length="0.85" shape="5266.14,3491.26 5265.34,3491.52"/>
    </edge>
    <edge id=":1555203823_4" function="internal">
        <lane id=":1555203823_4_0" index="0" disallow="tram rail_urban rail rail_electric rail_fast ship" speed="6.10" length="6.77" shape="5265.38,3491.80 5265.01,3492.06 5263.49,3492.08 5261.58,3491.34 5259.28,3489.82"/>
    </edge>
    <edge id=":1555203823_5" function="internal">
        <lane id=":1555203823_5_0" index="0" disallow="tram rail_urban rail rail_electric rail_fast ship" speed="3.65" length="3.83" shape="5265.34,3491.52 5264.77,3491.71 5263.89,3491.52 5263.51,3490.71 5263.63,3489.28"/>
    </edge>
    <edge id=":158968776#1-AddedOffRampNode_0" function="internal">
        <lane id=":158968776#1-AddedOffRampNode_0_0" index="0" disallow="bicycle tram rail_urban rail rail_electric rail_fast ship" speed="27.78" length="8.27" shape="4080.51,7130.11 4080.22,7132.60 4080.78,7134.41 4081.35,7136.21 4081.06,7138.71"/>
        <lane id=":158968776#1-AddedOffRampNode_0_1" index="1" disallow="bicycle tram rail_urban rail rail_electric rail_fast ship" speed="27.78" length="8.27" shape="4080.51,7130.11 4078.02,7137.71"/>
        <lane id=":158968776#1-AddedOffRampNode_0_2" index="2" disallow="bicycle tram rail_urban rail rail_electric rail_fast ship" speed="27.78" length="8.27" shape="4077.47,7129.11 4074.98,7136.71"/>
    </edge>
    <edge id=":158968776#1-AddedOnRampNode_0" function="internal">