<?xml version="1.0" encoding="UTF-8"?>

<!-- generated on 2022-10-05 15:30:18 by Eclipse SUMO netedit Version 1.14.1
-->

<routes xmlns:xsi="http://www.w3.org/2001/XMLSchema-instance" xsi:noNamespaceSchemaLocation="http://sumo.dlr.de/xsd/routes_file.xsd">
    <!-- Vehicles, persons and containers (sorted by depart) -->
    <flow id="f_0" begin="0.00" departLane="random" departSpeed="avg" color="blue" from="656841716#0" to="422681308#1" via="374938769#1 656919444 656919442#0 425241008 425250722 656919445 361676431 656919442#0 656841716#1 656919456 374938768 374938770#0 656919458#1 656919462#0 425258076#1 1071215925#1 1071215926 1071215925#2 1044709664#1 1044709665 423031466#0 423031445 425242057 374938770#1 226668664#0 1082221507#3 1070218937#0 335757701#2 1070218936 325695867 825168105 1070218939 1074979224#2 89781675#6 1095670271#1 1074979224#0 825168116 325694118 89781675#4 825168107#0 160627936 825168108 825168110#0 825168113 825168110#1 825168118#2 1075651288 825168107#1 740119843#0 325694116#1 60211595 153998211 160627947 160627945 825168118#3 432525334 160627954 432525334 1090905824 1096866287#0 425229617#1 432525329#2 326152536#2 93414703#0 1090905826#2 1096866288#0 93414703#2 425229611#2 161679437#0 1090905836#0 884818710 884818708 1090905837 884818716 884818714 425229611#0 161679437#2 884818704 884818702 884818703 884818705 432525329#3 425229617#0 425229621 884818641#0 884818642#0 313911856 313911853 365477741#3 433223958#0 861115959#2 433223959#0 -135986245#1 838415380 135986240 422198650 823385109 91364333 422967079 91364333 422967079 162223865 823385108 422198636 E0 E1 995771994 81354419 81508895 81508897 422967072#1 142098244 422967072#1 422967072#0 422967070 422967084 81389847 81377378 81361145 81391427 80264615#1 166258724#0 309348928#0 422967080 309348928#4 62766663 422198645 62114822#2 422970702#0 -162223843 422970702#2 422198636 142098247#0 62114822#0 162229420 80363808 -142098243 162229430#0 62344595 142098245#1 166219595 -166219595 162229430#1 162223864 823385107 162223864 81508894 81512933#1 142846713#0 81513052 81513193 74663697#0 80341461 141166601 141166604 141166605 141166582 81536611 141166582 74663697#0 141166582 80340604#1 80341116#0 80366877#1 80341116#0 80366877#0 80341116#2 884923096#2 884923094#0 884923096#2 884923096#0 422793527 -274200049 -274200051#0 274200049 E4 423350009 -861115961 861115961 656970719#0 422793529#1 824231987#1 422793520#3 215102176#0 215102173#2 215102176#1 215095891 422793520#2 167232362#1 422793520#1 167232362#0 422793520#0 215095889#1 -274200051#0 274200051#0 -274200051#0 81543306 884923094#1 81543306 780081856#0 884923094#1 81543306 884923095 884923097 80366877#0 80341116#1 80366877#0 80366877#1 80340895 80341116#0 80341461 80357931 80340706 884691910 167230207 80362929 167230213 167230217 80340239#2 1052086656#0 1052086657 432528668 274200208 422793537#1 422793544#1 422793548#0 319522400#2 422793548#1 947821607#0 947821607#2 579469052 435443473 579479310#2 424860960#1 947821607#2 308846991 424860960#0 372790241#2 947821584 947821585 763482842#1 763482843#0 422793519#2 947821589 947821591 991819940#0 -372790240 372790240 991819940#1 991819941 308845838 991819939 61864005 432997236 140809504#9 422793539#0 140809504#8 140809504#5 422793539#1 422793546 780081859#0 432517582 432517583#0 422793545#0 422793546 1052086660 1052086659 142846718 80353533 142846718 80340239#2 165519020#0 422959989 142609853 422959989 142609853 422959987#2 558851273#0 81517540#0 558851273#0 62343858 81514536#0 81514599#0 777614167 777614169 81513193 142846713#0 81508895 160512338 -1070218923 161679422#1 161679425#0 1070218928 1070218931 1070218930 -1070218930 -1070218928 161679425#1 161679422#0 1012714584#2 -1012714584#2 93414692#2 335757698#4 422681308#6 226668663#2 161679375#0 -422681309#1 422681308#4 226668663#4 1082221507#1 226668664#2 335757698#2 226668663#6 422681308#2 226668663#7" end="3600.00" period="exp(0.7)"/>
</routes>
