<?xml version="1.0" encoding="UTF-8"?>

<!-- generated on 2022-10-01 13:47:46 by Eclipse SUMO duarouter Version 1.14.1
<configuration xmlns:xsi="http://www.w3.org/2001/XMLSchema-instance" xsi:noNamespaceSchemaLocation="http://sumo.dlr.de/xsd/duarouterConfiguration.xsd">

    <input>
        <net-file value="map3.net.xml"/>
        <route-files value="map3.trips.xml"/>
    </input>

    <output>
        <output-file value="map3.rou.xml"/>
    </output>

    <report>
        <ignore-errors value="true"/>
    </report>

</configuration>
-->

<routes xmlns:xsi="http://www.w3.org/2001/XMLSchema-instance" xsi:noNamespaceSchemaLocation="http://sumo.dlr.de/xsd/routes_file.xsd">
    <vehicle id="0" depart="0.00">
        <route edges="426527767#2 -424860278 166498343#1 426520812#0 426520812#1 422793520#6 422793520#7 538871952#0 538871952#1 538871952#2 538871952#3 538871952#4 426527154#0 426527154#1 426527154#2 426527154#3 162219729 162219722 135986240 E1 1097215410 -1097215407 1097215409#0 1097215409#1 93414692#0 93414692#1 -1012714584#1 -1012714584#0 -1070218929 -1070218930 -1070218931 -1070218928"/>
    </vehicle>
    <vehicle id="1" depart="1.00">
        <route edges="161679422#1 161679406 161679391#0 335757698#7 93414474 1097215407 1097215408 E0 995771994 80842978 162219723 80842977#0 80842977#1 861115954#0 861115955 426527154#2 162219730 162219724 579770839 162219726 158968776#1"/>
    </vehicle>
    <vehicle id="3" depart="3.00">
        <route edges="861115960 861115959#0 861115959#1 861115959#2 -135986245#2 -135986245#1 -135986245#0 -135986242 -319523380 E1 1097215410 -1097215407 1097215409#0 1012714585#3 1012714585#4"/>
    </vehicle>
    <vehicle id="4" depart="4.00">
        <route edges="313911853 313911855 81370525 740873767 432989890 432989888#6 432989888#7 432989888#0 432989888#1 432989888#2 432989888#3 432989888#4 81354261 81354419 158968776#0 158968776#1 313911856 313911854 153998211 160627947 89781668 160627957 161679416#0 161679416#1 161679416#2 161679416#3 161679375#0 161679375#1 161679375#2 161679375#3 335757698#6 335757698#7 1012714585#4 1070218924 1070218932 1070218933 1070218923 -1070218923 -1070218933 -1070218932"/>
    </vehicle>
    <vehicle id="5" depart="5.00">
        <route edges="142098246 166257609 166257612 309348928#2 160512339 160512338 162223833 606914271#0 162223843 142098245#0 142098245#1 166220222 162229429 823385108 81488886 91364333 422198650"/>
    </vehicle>
    <vehicle id="8" depart="8.00">
        <route edges="142098247#0 142098247#1 62114822#1 162229427#0 162229427#1 162229430#0 162229430#1 162229429 823385108 81488886 91364333 422198650 823385110#0 823385110#1 823385110#2 422793523 824231983 61863940#0 61863940#1 61863942 422198637 824231987#0 824231987#1 215102176#0 991819826 215102173#2 422960902"/>
    </vehicle>
    <vehicle id="9" depart="9.00">
        <route edges="81370525 740873767 432989890 432989888#6 432989888#7 432989888#0 432989888#1 432989888#2 432989888#3 432989888#4 81354261 81354419 158968776#0 158968776#1 313911856 313911854 153998211 160627947 89781668 160627957 161679416#0 161679416#1 161679416#2 161679416#3 161679375#0 226668663#1 -422681309#0 -1012714584#2"/>
    </vehicle>
    <vehicle id="10" depart="10.00">
        <route edges="81354419 158968776#0 158968776#1 313911856 313911854 153998211 160627947 89781668 160627957 161679416#0 161679416#1 161679416#2 161679432#1 160627945 60211595"/>
    </vehicle>
    <vehicle id="11" depart="11.00">
        <route edges="166258724#0 166258724#1 81354419 158968776#0 158968776#1 313911856 313911854 153998211 160627947 89781668 160627957 161679416#0 161679416#1 161679416#2 161679416#3 161679375#0 226668663#1 226668663#2 226668663#3 226668663#4 226668663#5 226668663#6 226668663#7 1011430126 1011430122 1082220051 1071215925#0 656919462#1 1082220052 1071215924 1011430129 1011430128 1095857815"/>
    </vehicle>
    <vehicle id="12" depart="12.00">
        <route edges="93414703#0 1096866287#0 425229617#3 432525334 739876706 161679416#0 161679416#1 161679416#2 161679432#1 160627945 60211595 27797260 313911853 313911855 81370525 740873767 432989890 432989888#6 432989888#7 432989888#0 432989888#1 432989888#2 81508897 81508890 81508894 81512933#0 81512933#1 81512933#2 81513193 80341462 80341461 80357930 884691910 80362929 167230217 167230219#0 167230219#1 167230219#2 147111300 142609860#0 142609860#1 165519020#0 165519020#1 167230213"/>
    </vehicle>
    <vehicle id="13" depart="13.00">
        <route edges="1011430128 422681308#0 422681308#1 422681308#2 422681308#3 422681308#4 422681308#5 422681308#6 422681308#7 422681308#8 161679391#3 161679391#4 89781670 161679432#0 161679432#1 160627945 60211595 27797260 313911853 313911855 81370525 740873767 432989890 432989888#6 432989888#7 432989888#0 432989888#1 432989888#2 81508897 81508890 81508894 81512933#0 81512933#1 81512933#2 81513193 80341462 80341461 80357930 884691910 80362929 167230217 167230219#0 167230219#1 167230219#2 147111300 1052086657 1052086660 422793545#0 422793545#1 432517583#0 780081859#1 422793546 1052086659"/>
    </vehicle>
    <vehicle id="14" depart="14.00">
        <route edges="81543306 140809499#0 422793539#5 422793516#1 422793527 884923096#0 884923096#1 884923096#2 884923097 80366877#0 80366877#1 74663697#0 74663697#1 884923091 884923090 142609853 422959987#0 81517539#1 81516124 777614168#0 777614168#1 777614167 422970667"/>
    </vehicle>
    <vehicle id="16" depart="16.00">
        <route edges="422793520#3 422793520#4 422793520#5 422793520#6 426527767#1 426527767#2 426527767#3 422793516#0 422793516#1 140809504#0 140809504#1 140809504#2 140809504#3 141166730#1 780081860 780081859#0 780081859#1 422793537#0 422793537#1 422793548#0 422793548#1 947821607#0"/>
    </vehicle>
    <vehicle id="19" depart="19.00">
        <route edges="824231986 422198651 422793517 422198629 824231982 422793533#0 422793533#1 824490872 538871952#4 426527154#0 861115956 162223835#1 162223835#2 426527153#0 426527153#1 -274200051#0 274200049 884923096#2 884923097 80366877#0 884923093 80341171 80340604#3 80340604#4 80340604#5 80340604#6 80340604#7 80340604#8 80340604#9 80340604#10 141166597 884923658 165519010 80362929 167230217 167230219#0 167230219#1 167230219#2 147111300 1052086657 1052086660 422793545#0 422793537#1 422793548#0 422793548#1"/>
    </vehicle>
    <vehicle id="20" depart="20.00">
        <route edges="62766663 606914271#5 606914271#6 606914271#0 162223843 142098245#0 142098245#1 166220222 162229429 823385108 81488886 91364333 422198650 823385110#0 823385110#1 824490874 426527153#1 -274200051#0"/>
    </vehicle>
    <vehicle id="21" depart="21.00">
        <route edges="142846713#0 142846713#1 81508898 81508896 81508895 432989888#4 432989888#5 432989888#6 432989888#7 432989888#0 432989888#1 432989888#2 81508897 81508890 81508894 81512933#0 81512933#1 81512933#2 81513193 80341338 884923655 141166593 80340604#6 80340604#7 80340604#8 80340604#9 80340604#10 80340604#11 80340604#0 80340604#1 80340895 884923092 80341116#1 80341116#2 884923095 884923094#0 884923094#1 81543306 140809499#0 140809499#1 166498343#0 166498343#1 426520812#0 426520812#1 426520812#2 656970719#0 656970719#1 -150879957 861115961 166095192 166095193 162218610 162218611"/>
    </vehicle>
    <vehicle id="22" depart="22.00">
        <route edges="-424873689#0 81513052 142846713#0 142846713#1 81508898 81508896 81508895 432989888#4 81354261 81354419 158968776#0 158968776#1 313911856 313911854 153998211 160627947"/>
    </vehicle>
    <vehicle id="23" depart="23.00">
        <route edges="1012714585#0 1057874490#1 226668663#0 161679375#1 161679375#2 161679375#3 335757698#6 335757698#7 93414474 1097215407 1097215408 E0 -995771995#0 319523380 135986242 135986245#0 135986245#1 433223959#0 433223959#1 433223960 433223958#0 433223958#1 433223958#2 656970719#1 -150879957 861115961 166095192 166095193 162218610 162218611"/>
    </vehicle>
    <vehicle id="24" depart="24.00">
        <route edges="426527154#1 426527154#2 162219730 162219724 579770839 838415381 1044415658 1044415657 838415380 135986245#1 433223959#0 433223959#1 433223960 433223958#0 433223958#1 422793529#1 426527767#0 426527767#1 426527153#5 426527153#6 422793535 215102173#0 215102173#1 215102173#2"/>
    </vehicle>
    <vehicle id="25" depart="25.00">
        <route edges="215095891 215095890#0 215095890#1 422198631#0 422198631#1 824231986 422198651 422793517 422198629 824231982 422793533#0 422793533#1 422793533#2 823385109 422967079 422967073 162223865 162223864 142098248"/>
    </vehicle>
    <vehicle id="26" depart="26.00">
        <route edges="161679416#0 161679416#1 884818646#0 161679434#1 161679434#2 161679434#3 89781675#0 89781675#1 89781675#2 89781675#3 89781675#4"/>
    </vehicle>
    <vehicle id="27" depart="27.00">
        <route edges="432525329#0 432525329#1 884818641#1 425229617#2 425229617#3 432525334 739876706 161679416#0 161679416#1 161679416#2 161679432#1 160627945 60211595 27797260 313911853 313911855 81370525 740873767 432989890 432989888#6 162229422 422967072#0 422967072#1 422967070 422967084 -142098245#0 -162223843 606914271#1 422970702#0 422970702#1 422970702#2"/>
    </vehicle>
    <vehicle id="29" depart="29.00">
        <route edges="1090905826#0 1090905826#1 326152536#1 1096866288#1 1096866287#0 425229617#3 432525334 89781675#1 89781675#2 89781675#3 89781675#4 89781675#5 1074979224#2 1070218937#0 1070218937#1 226668664#1 226668664#2"/>
    </vehicle>
    <vehicle id="30" depart="30.00">
        <route edges="E0 995771994 80842978 162219723 80842977#0 80842977#1 80842977#2 162223835#0 162223835#1 162223835#2 426527153#0 426527153#1 426527153#2 426527153#3 426527153#4 426527153#5 426520812#1 426520812#2"/>
    </vehicle>
    <vehicle id="31" depart="31.00">
        <route edges="422793537#1 422793548#0 319522400#1 422793544#1 274200208 432517582 780081858 780081857#0 780081857#1 422793539#2 422793539#3 422793539#4 140809499#1 166498343#0 166498343#1 426520812#0 426520812#1 422793520#6 422793520#7 538871952#0"/>
    </vehicle>
    <vehicle id="32" depart="32.00">
        <route edges="81517540#0 81517540#1 558851273#1 558851273#2 422959989 884923087 89561072 80340604#9 80340604#10 80340604#11 80340604#0 80340604#1 80340604#2 80340604#3 80340604#4 80341376 884923656 141166591 -424873689#0 81513052 81514600#0 81512933#2 81513193 80341338"/>
    </vehicle>
    <vehicle id="33" depart="33.00">
        <route edges="142846713#0 142846713#1 81508898 81508896 81508895 432989888#4 432989888#5 432989888#6 162229422 422967072#0 422967072#1 422967070 422967084 142098245#1 166220222 162229429 823385108 81488886 91364333 422198650 823385110#0 823385110#1 824490874 426527153#1 274200051#1 538871952#2 538871952#3 538871952#4 426527154#0 426527154#1 426527154#2 162219730 162219724 579770839 838415381 1044415658 1044415657 838415380 -135986245#0 -135986242"/>
    </vehicle>
    <vehicle id="34" depart="34.00">
        <route edges="162229427#1 -162229420 80363808 81389847 81377378 142098244 162229424 432989888#0 432989888#1 432989888#2 432989888#3 432989888#4 81354261 81354419 158968776#0 158968776#1 313911856 313911854 153998211 160627947 89781668 160627957 161679416#0 161679416#1 161679416#2 161679416#3 161679375#0 161679375#1 161679375#2 161679375#3 161679375#4 161679403 161679425#0 161679425#1"/>
    </vehicle>
    <vehicle id="35" depart="35.00">
        <route edges="141166591 -424873689#0 81513052 142846713#0 142846713#1 81508898 81508896 81508895 432989888#4 81354261 81354419 158968776#0 158968776#1 313911856 313911854 153998211 160627947 89781668 160627957 161679416#0 161679416#1 161679416#2 161679416#3 161679375#0 161679375#1 161679375#2 161679375#3 335757698#6 335757698#7 93414474"/>
    </vehicle>
    <vehicle id="36" depart="36.00">
        <route edges="825168110#0 825168113 89781675#3 89781675#4 89781675#5 1074979224#2 1070218937#0 1070218937#1 326152534 335757699 335757698#0 335757698#1 335757698#2 335757698#3 335757698#4 335757698#5 335757698#6 335757698#7 93414474 1097215407 1097215408 E0 -995771995#0 319523380 135986242 135986245#0 135986245#1 433223959#0 433223959#1 433223960 433223958#0 433223958#1 433223958#2 656970719#1 -150879957 861115961 166095192 166095193 162218610 162218611 -162218611 -162218610 -166095193 166095191"/>
    </vehicle>
    <vehicle id="38" depart="38.00">
        <route edges="884818647 1070218934#0 884818642#1 197151532#1 197151532#2 197151532#3 161679416#1 161679416#2 161679432#1 160627945 60211595 27797260 313911853 313911855 81370525 740873767 432989890 432989888#6 432989888#7 432989888#0 432989888#1 432989888#2 81508897 81508890 81508894 81512933#0 81512933#1 81512933#2 81513193 80341462 80341461 80357930 884691910 80362929 167230217 167230219#0 167230219#1 167230219#2 147111300 1052086657 1052086660 422793545#0 422793545#1 432517582 780081858 780081857#0 140809504#5 140809504#6 140809504#7 140809504#8 140809504#9 309222731 140809509 991819941 991819939 372790241#0 372790241#1 372790241#2"/>
    </vehicle>
    <vehicle id="39" depart="39.00">
        <route edges="161679391#4 89781670 161679432#0 161679416#3 161679375#0 161679375#1 161679375#2 161679375#3 335757698#6 161679391#1 161679391#2"/>
    </vehicle>
    <vehicle id="40" depart="40.00">
        <route edges="422793539#0 422793539#1 422793539#2 422793539#3 422793539#4 422793539#5 422793516#1 422793527 884923096#0 884923096#1 -274200049 274200051#0 274200051#1 538871952#2 538871952#3 538871952#4 426527154#0 426527154#1 426527154#2 426527154#3 162219729 162219722 135986240 E1 1097215410 -1097215407 1097215409#0 1097215409#1 93414692#0 161679375#3 161679375#4 161679403 161679425#0"/>
    </vehicle>
    <vehicle id="41" depart="41.00">
        <route edges="422967084 -142098245#0 80363808 81389847 81377378 142098244 162229424 432989888#0 432989888#1 432989888#2 432989888#3 432989888#4 81354261 81354419 158968776#0 158968776#1 313911856 313911854 153998211 160627947 89781668 160627957 161679433 -884818649 -1070218934#1 -1070218934#0 884818641#0"/>
    </vehicle>
    <vehicle id="42" depart="42.00">
        <route edges="226668664#2 226668664#3 422681308#5 422681308#6 422681308#7 422681308#8 161679391#3 161679391#4 89781670 161679432#0 161679432#1 160627945 60211595 27797260 313911853 313911855 81370525 740873767 432989890 432989888#6 432989888#7 432989888#0 432989888#1 432989888#2 432989888#3 432989888#4 81354261 81354419 158968776#0 158968776#1 313911856 313911854 153998211"/>
    </vehicle>
    <vehicle id="44" depart="44.00">
        <route edges="1011430128 422681308#0 422681308#1 422681308#2 335757698#4 335757698#5 335757698#6 335757698#7 93414474 1097215407 1097215408 E0 995771994 80842978 162219723 80842977#0 80842977#1 80842977#2 162223835#0 162223835#1 162223835#2 426527153#0 426527153#1 -274200051#0"/>
    </vehicle>
    <vehicle id="45" depart="45.00">
        <route edges="1044415658 1044415657 838415380 -135986245#0 -135986242 -319523380 E1 1097215410 -1097215407 1097215409#0 1097215409#1 161679391#2 161679391#3 161679391#4 89781670 161679434#0 161679434#1 161679434#2 161679434#3 160627954 432525329#0 432525329#1 432525329#2 432525329#3 884818704 884818705 425229611#0 425229611#1 1090905836#1 161679437#1 161679437#2 884818703 884818702 425229617#0 425229617#1"/>
    </vehicle>
    <vehicle id="46" depart="46.00">
        <route edges="80363808 81389847 81377378 142098244 162229424 432989888#0 432989888#1 432989888#2 432989888#3 432989888#4 81354261 81354419 158968776#0 158968776#1 313911856"/>
    </vehicle>
    <vehicle id="47" depart="47.00">
        <route edges="-274200049 274200051#0 274200051#1 538871952#2 538871952#3 538871952#4 426527154#0 426527154#1 426527154#2 162219730 162219724 579770839 162219726 158968776#1 313911856 313911854 153998211 160627947 740119843#0 740119843#1 160627936 825168108 825168110#0 825168113 89781675#3 89781675#4 89781675#5 1074979224#2 1070218937#0 1070218937#1 226668664#1 226668664#2"/>
    </vehicle>
    <vehicle id="50" depart="50.00">
        <route edges="-1012714585#2 -1012714585#1 1057874490#1 226668663#0 226668663#1 226668663#2 226668663#3 226668663#4 226668663#5 226668663#6 226668663#7 1011430126 1011430122 1082220051 1071215925#0 656919462#1 432989083 425250718 656919450#0 656919453 374938769#0 656919445"/>
    </vehicle>
    <vehicle id="52" depart="52.00">
        <route edges="161679416#0 161679416#1 161679416#2 161679416#3 161679375#0 161679375#1 161679375#2 161679375#3 335757698#6 335757698#7 93414474 1097215407 1097215408 E0 995771994 80842978 162219723 80842977#0 80842977#1 80842977#2 162223835#0 162223835#1 162223835#2 426527153#0 426527153#1"/>
    </vehicle>
    <vehicle id="53" depart="53.00">
        <route edges="1044709665 1071215926 1082220052 1071215924 1011430129 1011430128 422681308#0 422681308#1 422681308#2 422681308#3 422681308#4 422681308#5 422681308#6 422681308#7 422681308#8 161679391#3 161679391#4 89781670 161679434#0 161679434#1 161679434#2 161679434#3 160627954 432525329#0 432525329#1 884818641#1 1090905824 1090905825 1090905826#0 1090905826#1 326152536#1 326152536#2"/>
    </vehicle>
    <vehicle id="54" depart="54.00">
        <route edges="325695867 825168104#0 825168115 825168118#1 825168118#2 825168118#3 161679375#0 226668663#1 226668663#2 226668663#3 226668663#4 93414692#4 93414692#5 93414692#6"/>
    </vehicle>
    <vehicle id="55" depart="55.00">
        <route edges="825168110#0 825168113 89781675#3 89781675#4 89781675#5 1074979224#2 1070218937#0 1070218937#1 326152534 335757699 335757698#0 335757698#1 335757698#2 335757698#3 335757698#4 335757698#5 161679375#4 161679403 161679425#0"/>
    </vehicle>
    <vehicle id="56" depart="56.00">
        <route edges="422198651 422793517 422198629 824231982 422793533#0 422793533#1 824490872 538871952#4 426527154#0 861115956 162223835#1 162223835#2 426527153#0 426527153#1 426527153#2 426527153#3 426527153#4 426527767#2 426527767#3 422793516#0 422793516#1 140809504#0 140809499#0 140809499#1"/>
    </vehicle>
    <vehicle id="57" depart="57.00">
        <route edges="884818646#1 884818648#0 884818648#1 884818649 161679434#3 89781675#0 89781675#1 89781675#2 89781675#3 825168114 825168110#2 825168105"/>
    </vehicle>
    <vehicle id="58" depart="58.00">
        <route edges="162223835#2 426527153#0 426527153#1 426527153#2 426527153#3 426527153#4 426527153#5 426520812#1 426520812#2 656970719#0 656970719#1 422793529#0 422793529#1 426520573"/>
    </vehicle>
    <vehicle id="59" depart="59.00">
        <route edges="425229611#0 425229611#1 1090905836#1 1090905836#2 884818709 326152536#0 326152536#1 1096866288#1 93414703#1 93414703#2 884818711 1090905838#0"/>
    </vehicle>
    <vehicle id="61" depart="61.00">
        <route edges="80341376 884923656 141166591 -424873689#0 81513052 81514600#0 81512933#2 81513193 80341462 80341461 80357930 884691910 80362929 167230217 167230219#0 167230219#1 167230219#2 147111300 1052086657 1052086660 422793545#0 422793545#1 432517582 780081858 780081857#0 140809504#5 140809504#6 140809504#7 140809504#8 140809504#9 309222731 140809509 991819941 991819939 372790241#0 372790241#1 763482842#0 422793519#1 422793519#2"/>
    </vehicle>
    <vehicle id="63" depart="63.00">
        <route edges="-1070218923 -1070218933 -1070218932 -1070218924 -1012714585#4 -1012714585#3 1097215409#1 161679391#2 161679391#3 161679391#4 89781670 161679434#0 161679434#1 161679434#2 161679434#3 89781675#0 89781675#1"/>
    </vehicle>
    <vehicle id="64" depart="64.00">
        <route edges="825168111#0 1075651288 325694116#1 160627945 60211595 27797260 313911853 313911855 81370525 740873767 432989890 432989888#6 432989888#7 432989888#0 432989888#1 432989888#2 81508897 81508890 81508894 81512933#0 81512933#1 81514600#1"/>
    </vehicle>
    <vehicle id="65" depart="65.00">
        <route edges="162223851 422198626 823385108 81488886 91364333 422198650 823385110#0 823385110#1 824490874 426527153#1 274200051#1 538871952#2 538871952#3 538871952#4 426527154#0 426527154#1 426527154#2 162219730 162219724 579770839 162219726 158968776#1 313911856 313911854 153998211 160627947 89781668 160627957 161679416#0 161679416#1 161679416#2 161679416#3 -422681309#1"/>
    </vehicle>
    <vehicle id="67" depart="67.00">
        <route edges="-884818649 -1070218934#1 884818642#1 884818642#2 884818642#3 1057874490#0 1057874490#1 226668663#0 161679375#1 161679375#2 161679375#3 335757698#6 335757698#7 93414474 1097215407 1097215408 E0 995771994 80842978 162219723 80842977#0 80842977#1 80842977#2 162223835#0 162223835#1 162223835#2 426527153#0 426527153#1 274200051#1 538871952#2 824490871 422793533#1 422793533#2 823385109 422967079 422967073 162223865 823385107 422198636"/>
    </vehicle>
    <vehicle id="68" depart="68.00">
        <route edges="-274200051#0 274200049 -274200049 274200051#0 274200051#1 538871952#2 538871952#3 538871952#4 426527154#0 426527154#1 426527154#2 162219730 162219724 579770839 162219726 158968776#1 313911856 313911854 153998211 160627947 89781668 160627957 161679416#0 161679416#1 161679416#2 161679432#1 160627945 60211595 27797260 313911853 313911855 81370525 80264615#0 80264615#1"/>
    </vehicle>
    <vehicle id="69" depart="69.00">
        <route edges="780081859#0 780081859#1 422793546 1052086659 1052086656#0 142609860#1 165519020#0 165519020#1 167230213 167230207 422847903 884691911 80340706 80357931 80341463 -424873689#1 -424873689#0 81513052 142846713#0 142846713#1 81508898 81508896 81508895 432989888#4 81354261 81354419 158968776#0 158968776#1 313911856 313911854 153998211 160627947 89781668 160627957 161679416#0 161679416#1 161679416#2 161679416#3 161679375#0 226668663#1 226668663#2 1082221507#1"/>
    </vehicle>
    <vehicle id="71" depart="71.00">
        <route edges="161679391#4 89781670 161679432#0 161679432#1 160627945 60211595 27797260 313911853 313911855 81370525 740873767 432989890 432989888#6 432989888#7 432989888#0 432989888#1 432989888#2 432989888#3 432989888#4 81354261 81354419 158968776#0 158968776#1 313911856 313911854 153998211 160627947 740119843#0 825168106"/>
    </vehicle>
    <vehicle id="72" depart="72.00">
        <route edges="313911853 313911855 81370525 740873767 432989890 432989888#6 432989888#7 432989888#0 432989888#1 432989888#2 81508897 81508890 81508894 81512933#0 81512933#1 81512933#2 81513193 80341462 80341461 80357930 884691910 80362929 167230217 167230219#0 167230219#1 167230219#2 147111300 142609860#0 142609860#1"/>
    </vehicle>
    <vehicle id="74" depart="74.00">
        <route edges="140809504#5 140809504#6 140809504#7 140809504#8 140809504#9 61864005 432997236 422793539#0 422793539#1 422793539#2 422793539#3 422793539#4 422793539#5 422793516#1 422793527 884923096#0 884923096#1 884923096#2 884923097 80366877#0 80366877#1 141166601 141166591 -424873689#0 81513052 142846713#0 142846713#1 81508898 81508896 81508895 432989888#4 432989888#5 432989888#6 162229422 422967072#0 422967072#1 422967070 422967084 -142098245#0 162229420 162229430#0"/>
    </vehicle>
    <vehicle id="75" depart="75.00">
        <route edges="E1 1097215410 -1097215407 1097215409#0 1012714585#3 93414474 1097215407 1097215408 E0 995771994 80842978 162219723 80842977#0 80842977#1 861115954#0 861115955 426527154#2"/>
    </vehicle>
    <vehicle id="76" depart="76.00">
        <route edges="313911856 313911854 153998211 160627947 89781668 160627957 161679416#0 161679416#1 161679416#2 161679416#3 161679375#0 226668663#1 226668663#2 226668663#3 226668664#3 422681308#5 422681308#6"/>
    </vehicle>
    <vehicle id="77" depart="77.00">
        <route edges="1070218923 161679422#1 161679406 161679391#0 335757698#7 93414474 1097215407 1097215408 E0 995771994 80842978 162219723 80842977#0 80842977#1 861115954#0 861115955 426527154#2 162219730 162219724 579770839 162219726 158968776#1"/>
    </vehicle>
    <vehicle id="78" depart="78.00">
        <route edges="166257614 81158261 432989888#2 81508897 81508890 81508894 81512933#0 81512933#1 81512933#2 81513193 80341338 884923655 141166593 80340604#6 80340604#7 80340604#8 80340604#9 80340604#10 80340604#11 80340604#0 80340604#1 80340895 884923092 80341116#1 80341116#2 884923095 884923094#0 884923094#1 81543306 140809499#0 140809499#1 166498343#0 166498343#1 426520812#0 426527153#6 422793535 215102173#0 215102173#1 215102173#2 422960902"/>
    </vehicle>
    <vehicle id="80" depart="80.00">
        <route edges="-274200051#0 274200049 -274200049 274200051#0 274200051#1 538871952#2 538871952#3 538871952#4 426527154#0 426527154#1 426527154#2 162219730 162219724 579770839 162219726 158968776#1 313911856 313911854 153998211 160627947 89781668 160627957 161679433 161679434#3 160627954 432525329#0 432525329#1 884818641#1 425229617#2 425229617#3"/>
    </vehicle>
    <vehicle id="81" depart="81.00">
        <route edges="142846713#0 142846713#1 81508898 81508896 81508895 432989888#4 81354261 81354419 158968776#0 158968776#1 313911856 313911854 153998211 160627947 89781668 160627957 161679433 161679434#3 160627954 432525329#0 884818642#0"/>
    </vehicle>
    <vehicle id="82" depart="82.00">
        <route edges="824231983 61863940#0 -424713019 426527153#4 426527153#5 426520812#1 422793520#6 422793520#7 538871952#0 538871952#1 538871952#2 538871952#3 538871952#4 426527154#0 426527154#1 426527154#2 162219730 162219724 579770839 162219726 158968776#1 313911856 313911854 153998211 160627947 89781668 160627957 161679416#0 161679416#1 161679416#2 161679416#3 161679375#0 226668663#1 226668663#2 226668663#3 226668663#4 226668663#5 226668663#6 226668663#7 1011430126 1011430122 1082220051 1071215925#0 656919462#1 1082220052 1071215924 1011430129 1011430128"/>
    </vehicle>
    <vehicle id="83" depart="83.00">
        <route edges="158968776#1 313911856 313911854 153998211 160627947 89781668 160627957 161679416#0 161679416#1 161679416#2 161679416#3 161679375#0 161679375#1 161679375#2 161679375#3 335757698#6 335757698#7 93414474 1097215407 1097215408 E0 995771994 80842978 162219723 80842977#0 432534105"/>
    </vehicle>
    <vehicle id="84" depart="84.00">
        <route edges="141166601 141166591 -424873689#0 81513052 142846713#0 142846713#1 81508898 81508896 81508895 432989888#4 81354261 81354419 158968776#0 158968776#1 313911856 313911854 153998211 160627947 89781668 160627957 161679416#0 161679416#1 161679416#2 161679416#3 161679375#0 226668663#1 226668663#2 1082221507#1"/>
    </vehicle>
    <vehicle id="85" depart="85.00">
        <route edges="89781675#2 89781675#3 89781675#4 89781675#5 1074979224#2 1070218938 825168118#0 825168118#1 825168112 825168104#2 825168109 825168107#0 825168107#1 325694116#0 325694116#1 160627945 60211595 27797260 313911853 313911855 81370525 740873767 432989890 432989888#6 432989888#7 432989888#0 432989888#1 432989888#2 81508897 81508890 81508894 81512933#0 81512933#1 81512933#2 81513193 80341462 80341461 80357930 884691910 80362929 167230217 167230219#0 167230219#1 167230219#2 147111300 1052086657 1052086660 422793545#0 422793545#1 432517582 780081858 780081857#0 780081857#1 422793539#2 422793539#3 422793539#4"/>
    </vehicle>
    <vehicle id="86" depart="86.00">
        <route edges="365477741#3 423350016 433223959#1 433223960 433223958#0 433223958#1 422793529#1 426527767#0 426527767#1 426527767#2 426527767#3 422793516#0 422793516#1 422793527 884923096#0 884923096#1 884923096#2 884923097 80366877#0 884923093 80341171 80340604#3 80340604#4 80340604#5 80340604#6 80340604#7 80340604#8 80340604#9 80340604#10 141166597 884923658 165519010 80362929 167230217 167230219#0 80358676#0"/>
    </vehicle>
    <vehicle id="87" depart="87.00">
        <route edges="81361145 81361144 142098246 166257609 166257612 309348928#2 160512339 160512338 162223833 606914271#0 162223843 80363808 81389847 81377378 142098244 162229424 432989888#0 432989888#1 432989888#2 81508897 81508890 81508894 81512933#0 81512933#1 81512933#2 81513193 80341462 80341461 80357930 884691910 80362929 167230217 167230219#0 167230219#1 167230219#2 147111300 1052086657 1052086660 422793545#0 422793545#1 432517582 780081858 780081857#0 140809504#5 140809504#6 140809504#7 140809504#8 140809504#9"/>
    </vehicle>
    <vehicle id="88" depart="88.00">
        <route edges="1012714584#2 422681308#7 422681308#8 161679391#3 161679391#4 89781670 161679434#0 161679434#1 161679434#2 161679434#3 160627954 432525329#0 432525329#1 884818641#1 1090905824 1090905825 1090905826#0 1090905826#1 326152536#1 326152536#2"/>
    </vehicle>
    <vehicle id="89" depart="89.00">
        <route edges="313911853 313911855 81370525 740873767 432989890 432989888#6 432989888#7 432989888#0 432989888#1 432989888#2 432989888#3 432989888#4 81354261 81354419 158968776#0 158968776#1 313911856 313911854 153998211 160627947 89781668 160627957 161679416#0 161679416#1 161679416#2 161679416#3 161679375#0 226668663#1 226668663#2 226668663#3 226668663#4 226668663#5 226668663#6 226668663#7 1011430126 1011430122 1082220051 1071215925#0 656919462#1 432989083 425250718 656919450#0 656919453 374938769#0 374938769#1"/>
    </vehicle>
    <vehicle id="90" depart="90.00">
        <route edges="656919442#0 656919442#1 937042569#0 1071215924 1011430129 1011430128 422681308#0 422681308#1 422681308#2 335757698#4 335757698#5 335757698#6 335757698#7 93414474 1097215407 1097215408 E0 -995771995#0 319523380 135986242 135986245#0 135986245#1 433223959#0 433223959#1 433223960 433223958#0 433223958#1"/>
    </vehicle>
    <vehicle id="91" depart="91.00">
        <route edges="E0 -995771995#0 E1 1097215410 -1097215407 1097215409#0 1097215409#1 161679391#2 884818645#0 884818645#1 1057874489#0 1057874489#1 197151532#0 884818642#2 884818642#3 1057874490#0"/>
    </vehicle>
    <vehicle id="93" depart="93.00">
        <route edges="824231986 422198651 422793517 422198629 824231982 422793533#0 422793533#1 824490872 538871952#4 426527154#0 426527154#1 426527154#2 426527154#3 162219729 162219722 135986240 E1 1097215410 -1097215407 1097215409#0 1097215409#1 161679391#2"/>
    </vehicle>
    <vehicle id="94" depart="94.00">